561
Atoms. Timestep: 20542
Pt 9.10831 8.13856 15.3841
Au 6.44898 19.8085 21.8949
Pt 11.4731 6.5848 14.9701
Au 5.79041 9.88379 11.7053
Pt 11.1653 16.047 12.2853
Pt 9.5531 8.76214 10.8797
Au 4.88023 11.7147 13.7087
Pt 8.57947 14.5315 15.9045
Au 6.65984 18.7584 8.02178
Pt 7.809 10.484 15.3915
Au 17.2743 27.5579 16.232
Pt 9.42286 12.3075 17.4414
Au 5.70408 9.08256 14.3326
Pt 6.81083 11.0901 17.9098
Pt 8.92922 9.54086 17.5952
Au 10.3499 25.6023 12.9614
Au 8.99232 5.28071 15.6876
Pt 11.1109 17.6592 10.0858
Au 8.87603 10.9304 5.87062
Pt 6.38243 20.523 14.4942
Au 17.3137 23.6687 22.2717
Pt 7.74791 20.8851 16.7691
Au 7.50102 10.1882 22.1664
Pt 13.2063 15.9149 26.069
Au 10.3355 23.5989 23.2826
Pt 6.98316 16.1022 18.787
Au 8.90471 19.4462 6.15531
Au 17.2941 3.83437 18.1569
Pt 12.4484 21.3512 11.812
Au 6.84144 22.4591 20.9642
Pt 10.3797 21.0492 16.0357
Au 12.4501 18.24 27.1443
Pt 8.01927 18.0991 20.3183
Au 5.22325 17.9838 10.5087
Au 10.284 18.7142 25.4652
Pt 14.6651 22.4423 12.7261
Pt 8.61094 11.0085 19.7531
Pt 10.1323 11.3075 12.4427
Pt 16.682 11.4942 19.2457
Pt 11.779 8.68786 8.90337
Pt 19.8676 10.2247 8.30246
Pt 9.21747 16.0065 10.5166
Au 6.0103 11.8081 20.4527
Pt 9.00555 14.6512 8.35682
Au 5.29469 12.424 11.0104
Pt 10.3706 20.9892 24.0187
Au 10.5804 16.166 26.8384
Pt 11.1748 10.9927 7.28058
Au 6.70746 7.19948 12.3397
Pt 14.5507 11.0699 17.6005
Au 4.7856 10.8925 16.2716
Pt 12.0971 6.54496 19.4296
Au 5.94441 14.6359 20.8866
Pt 7.57857 13.4943 18.909
Au 24.7648 15.8851 20.9522
Pt 17.042 14.1506 20.1678
Pt 20.6384 19.8044 21.304
Pt 11.6627 13.2065 8.68231
Au 22.9993 12.9612 5.76233
Au 8.50625 6.10463 10.6279
Pt 12.2637 12.5294 18.0122
Au 14.816 5.4128 8.40333
Pt 6.13722 15.3514 16.384
Au 6.42686 22.7097 18.2356
Pt 10.4062 17.2917 19.8019
Au 12.305 13.3747 4.07724
Pt 10.086 16.4815 14.7213
Au 10.745 24.6744 20.7718
Pt 8.4746 17.0355 16.8554
Au 15.9831 10.0396 26.0683
Pt 13.1106 7.83853 12.9809
Au 4.6103 16.6567 13.169
Pt 12.7282 11.4552 20.8284
Au 13.3278 9.39312 6.21836
Pt 15.4507 8.43317 16.328
Au 4.13381 13.7173 15.5225
Pt 20.5982 9.88266 21.4312
Au 19.6854 15.5401 26.3792
Pt 20.0624 7.7608 19.7842
Pt 8.13571 20.6915 19.4923
Au 3.81256 16.4834 15.7734
Au 8.54117 20.6182 8.52766
Pt 9.59823 15.0066 18.362
Au 17.246 18.0504 3.90544
Pt 14.6145 14.4181 5.20982
Au 18.9786 14.1712 12.9013
Pt 7.00449 16.246 11.7579
Au 21.1172 7.80655 10.1146
Pt 16.0886 20.6381 14.081
Au 8.3833 22.6724 10.1499
Pt 12.7567 13.8975 21.7957
Au 17.234 23.4575 6.63612
Pt 13.2165 23.5707 10.3649
Au 4.09485 21.8334 14.3111
Pt 9.5706 12.3894 14.7494
Au 9.65057 14.002 25.2748
Pt 6.21914 14.3004 13.5516
Au 4.36071 15.7714 18.4752
Pt 13.4821 8.90556 18.2955
Au 11.1544 24.5226 17.9306
Pt 10.1933 10.1291 21.5148
Au 7.82653 13.4451 6.15307
Au 21.477 23.2467 10.9157
Pt 20.4613 15.2801 6.309
Au 14.903 13.3858 2.71846
Pt 11.2873 16.5354 24.2914
Au 10.5717 15.6094 4.16464
Pt 6.08791 18.1343 15.7583
Au 4.90539 15.0949 10.6234
Pt 10.3371 21.9104 18.4893
Au 5.30703 20.4752 19.5205
Pt 8.91818 14.522 13.0653
Au 11.62 13.6873 13.4339
Pt 14.1758 24.2968 17.809
Au 8.54323 7.72309 21.9009
Pt 12.3677 8.80675 20.648
Au 20.0068 23.6297 21.6592
Pt 19.1655 12.0635 20.5686
Au 3.72147 14.0498 12.8182
Au 7.98999 21.8849 23.3107
Pt 21.7594 21.8397 17.2448
Au 8.03701 24.3364 12.2161
Au 23.7149 22.9718 18.5263
Pt 7.95325 18.4899 10.4034
Au 12.3599 23.8324 7.74327
Pt 9.64723 19.1326 17.8425
Au 15.0908 23.5279 23.8561
Pt 8.03154 20.5856 12.205
Au 8.55716 16.5421 24.883
Pt 14.8985 19.0478 26.1714
Au 16.294 26.1249 18.2144
Au 6.80052 16.9892 22.536
Pt 20.2505 21.3972 15.1914
Pt 19.2038 14.2641 10.1825
Pt 13.011 8.87982 15.4958
Pt 15.4238 6.27531 12.2274
Pt 16.1701 6.28973 17.734
Pt 15.6134 8.54118 13.6731
Pt 16.3895 7.77059 22.0663
Pt 16.3577 8.91856 18.779
Pt 11.1098 7.96789 17.2668
Pt 12.5372 20.2212 25.3287
Pt 18.7341 13.4725 5.65487
Au 13.3503 5.15359 21.3887
Au 9.90418 9.16233 23.9721
Pt 12.6485 14.9281 10.4434
Au 6.41559 10.8084 8.75222
Pt 12.5045 12.3264 11.1874
Au 10.6934 8.52359 6.27954
Pt 14.8403 8.91957 11.2075
Au 7.07613 8.36658 9.88989
Pt 16.3839 14.9047 9.77538
Au 13.2883 9.57877 25.618
Pt 10.4546 12.9198 20.1133
Au 10.5403 4.08174 13.9502
Pt 13.6076 6.8329 10.3012
Au 19.2477 4.47183 19.8764
Pt 10.2519 14.7039 22.583
Au 6.8888 6.66576 14.9457
Pt 18.1375 17.4467 25.0786
Au 7.92209 19.158 24.1682
Pt 10.6095 10.9543 9.8268
Au 21.8729 7.97492 22.8983
Pt 17.5066 14.5387 24.9954
Pt 10.7773 17.615 6.09489
Au 22.7373 8.32726 12.3233
Au 5.02226 13.1779 18.1195
Pt 10.6592 13.7536 6.35518
Au 12.7287 26.1146 11.4291
Pt 14.8914 17.1494 5.09545
Au 11.3649 10.8741 4.67402
Pt 8.07982 11.1032 10.7268
Au 17.0047 12.8337 11.4913
Pt 8.62653 6.91621 17.765
Au 16.2002 20.0197 21.3934
Pt 7.53004 13.8094 10.7994
Au 12.5453 11.0732 13.8532
Pt 14.5549 8.55266 8.50675
Au 18.0462 4.82744 12.8123
Pt 12.3458 9.79724 23.0824
Au 7.97729 4.73586 13.0356
Pt 10.9589 12.1943 22.8414
Au 18.7468 11.2433 3.98391
Pt 11.1801 10.4063 18.7922
Au 23.4871 13.4925 22.4355
Pt 15.3664 13.6866 22.4131
Pt 10.1275 13.531 10.8197
Au 14.4621 19.9971 5.08122
Au 23.95 11.6779 11.7123
Pt 9.12161 17.5382 8.22271
Au 13.9943 17.6905 16.7559
Pt 14.7425 12.884 9.67751
Au 15.1335 10.7776 14.9357
Pt 13.3333 10.8396 9.01038
Au 11.3398 16.8327 17.275
Pt 13.2877 12.4743 6.57761
Au 16.0822 13.4172 17.1241
Pt 9.16145 19.8593 21.9564
Au 13.6504 12.9988 15.5267
Pt 21.6051 12.9892 12.7261
Au 11.5595 18.738 15.2961
Pt 16.9587 17.2734 20.3407
Au 17.9189 4.04233 15.4788
Pt 16.6571 21.3479 23.7529
Au 20.1881 3.97696 16.9792
Pt 9.91223 8.23173 19.712
Au 15.1252 7.61914 24.8562
Pt 15.6785 16.5804 25.3555
Pt 10.1517 20.0627 10.75
Au 10.6483 24.5612 10.2994
Au 16.3354 27.1044 13.7229
Pt 13.2437 18.3328 6.94284
Au 23.3815 7.58695 17.6416
Pt 6.55222 18.5313 12.9271
Au 4.91921 20.8259 16.7691
Pt 10.4449 20.4419 13.4846
Au 4.55825 20.1384 12.2355
Pt 14.1502 20.5051 23.3141
Au 16.4176 11.1677 2.69287
Pt 10.6691 23.356 14.7926
Au 24.913 17.6302 8.46013
Pt 18.4141 20.3384 7.76372
Au 16.6646 18.3235 12.7537
Pt 18.6256 21.24 22.0955
Au 14.0508 18.8075 14.179
Pt 6.83596 18.7723 18.119
Au 7.53349 14.4893 23.4137
Pt 8.35519 12.8083 21.6277
Au 20.0293 13.2015 24.9791
Pt 21.3047 20.753 12.7359
Au 14.6193 14.4044 27.83
Au 13.0482 25.6732 19.7582
Pt 18.4219 19.6011 15.3424
Au 10.3795 22.0108 6.95427
Pt 8.87453 23.2975 16.7621
Au 15.3279 4.01004 13.556
Pt 14.523 17.9746 21.8274
Au 21.8866 24.408 16.4864
Pt 18.682 17.2309 6.21582
Au 6.25616 20.6591 10.1734
Pt 16.6438 23.4394 17.709
Au 22.0814 23.3062 13.8471
Pt 14.9527 26.0255 15.7806
Au 15.3998 26.7284 11.1694
Pt 14.6857 15.6053 20.631
Au 23.4922 17.272 23.0956
Pt 12.6669 22.2947 17.0175
Au 8.56811 23.9629 19.3241
Au 3.89688 19.0904 14.6852
Pt 8.41159 22.1718 14.2697
Pt 18.5249 8.89948 10.082
Pt 19.2845 6.55103 15.1028
Pt 6.72642 12.7838 15.8221
Pt 13.4386 6.54268 17.108
Pt 16.4503 7.31769 9.94486
Pt 15.4546 19.1134 18.9128
Pt 16.252 10.4518 9.69424
Pt 19.094 11.3729 23.1218
Pt 19.7802 10.4034 16.0646
Pt 17.1879 10.7913 16.6503
Pt 14.2549 6.29219 14.7173
Pt 18.2444 15.1136 7.83391
Au 16.0383 15.8553 2.86824
Au 13.3143 15.7125 3.1108
Pt 7.47787 16.4948 14.3262
Au 4.17032 18.3942 17.7523
Pt 21.3281 12.4778 15.3371
Au 9.57798 12.9539 4.13536
Pt 17.9832 11.2168 6.69479
Au 8.89865 9.36146 8.17946
Pt 16.3399 12.4642 4.98073
Au 15.2201 15.3433 15.1505
Pt 17.5081 9.45665 23.7998
Au 24.9029 17.2771 11.2639
Pt 7.47582 12.0311 13.0997
Au 12.7447 4.15422 15.5071
Pt 16.5389 12.0659 24.356
Au 21.0184 17.5624 25.1711
Pt 19.4793 15.7171 23.666
Au 10.0322 6.77655 8.50031
Pt 18.9006 6.04271 17.7606
Au 12.7342 6.79578 7.25275
Pt 13.4509 18.0301 24.3464
Pt 13.8001 14.7347 7.98176
Au 24.6279 15.158 7.19419
Au 15.9106 16.0975 18.1164
Pt 23.2495 15.6247 9.70835
Au 8.58126 16.0484 6.03628
Pt 8.8437 12.1405 8.34173
Au 20.5666 6.46441 12.6143
Pt 21.1125 17.6055 5.17533
Au 19.38 11.4272 13.4774
Pt 18.0442 8.2479 16.9254
Au 14.0725 4.14604 10.8805
Pt 23.9478 11.7791 15.5067
Au 18.6531 12.9482 15.5524
Pt 9.49966 6.75921 13.1462
Au 12.4247 19.7923 17.8766
Pt 16.5567 11.5091 21.8233
Au 23.4043 9.9103 21.7206
Pt 12.1187 16.6348 21.7479
Au 20.8672 5.82948 21.5101
Pt 15.0125 9.86404 23.341
Au 5.28644 17.6859 20.2824
Pt 14.832 9.87526 20.6505
Pt 15.9926 17.3427 10.3734
Au 12.5228 18.0661 4.09317
Au 11.0886 6.86119 22.0723
Pt 17.2512 19.7807 10.2584
Au 23.2555 19.7732 7.95292
Pt 21.7943 13.1668 10.1654
Au 18.0474 26.4511 11.6031
Pt 14.85 21.5253 9.96076
Au 13.5746 14.9589 17.5301
Pt 12.6061 15.7985 5.86808
Au 14.0108 16.778 12.1178
Pt 21.0596 11.8996 17.9915
Au 14.2788 14.0422 12.5409
Pt 19.5006 21.4762 10.4005
Au 23.6121 7.99157 14.8665
Pt 14.0254 15.7329 23.37
Au 11.2261 14.2036 16.1675
Pt 9.31003 17.972 12.5917
Au 12.5892 22.7669 24.5989
Pt 8.56669 15.4136 20.7937
Au 15.4955 5.48021 23.1375
Pt 11.9147 14.9976 19.6046
Pt 16.6079 18.8137 6.3926
Au 6.76755 16.1779 8.8559
Au 20.8757 13.6718 4.12864
Pt 21.1971 18.6354 14.6835
Au 24.719 9.34934 19.3744
Pt 21.0264 18.0068 12.2204
Au 25.9326 15.2631 9.7417
Pt 14.6796 19.6863 11.7015
Au 14.4921 13.0863 19.6061
Pt 15.1807 19.1018 8.63233
Au 12.8288 26.6582 17.158
Pt 13.5958 17.0702 9.27689
Au 19.5014 11.5541 10.7179
Pt 11.3137 15.9002 8.13598
Au 18.6276 15.6804 18.546
Pt 10.9502 19.9315 20.1411
Au 14.8696 17.1016 27.9351
Pt 15.8565 21.1584 7.33275
Au 6.42258 8.49821 16.9573
Pt 24.2825 20.5307 17.1823
Au 20.134 9.24679 24.4606
Pt 17.2867 24.2783 13.2397
Pt 12.0642 18.6719 12.3717
Au 6.20845 23.1337 15.4978
Au 24.3871 13.0502 9.18069
Pt 11.24 22.0088 9.46527
Au 17.0312 21.1963 4.96384
Pt 22.0829 16.2199 18.6292
Au 15.5061 24.5316 20.2779
Pt 10.0957 22.6507 12.1636
Au 16.5902 15.5456 12.6519
Pt 10.9641 19.5041 8.01651
Au 23.8675 21.7689 12.3937
Pt 8.65579 19.0632 14.9758
Au 19.2789 15.985 3.80145
Pt 20.5502 18.6677 7.52132
Au 12.7476 16.132 14.6013
Pt 13.4957 20.1162 20.5525
Au 13.2014 17.5407 19.3878
Pt 12.374 23.8485 12.8699
Au 18.5807 11.0519 25.8664
Pt 22.7637 20.7571 14.9505
Au 22.4569 22.4159 20.9383
Pt 12.0564 21.7602 22.1298
Pt 17.2098 8.86039 7.72491
Pt 18.127 9.06801 14.474
Pt 11.2352 6.91661 11.1764
Pt 23.2641 14.1975 14.5008
Pt 10.8197 8.98439 13.568
Pt 22.0567 15.5725 21.37
Pt 14.7202 7.08422 19.9009
Pt 17.3092 10.1182 12.1634
Au 19.6166 23.5415 8.31716
Pt 23.2163 16.6089 13.344
Au 19.6465 7.53051 7.8926
Pt 16.7884 6.42674 14.8901
Au 17.7941 13.718 3.03846
Pt 21.2881 15.4931 11.5259
Au 16.0479 4.69912 20.4905
Pt 12.2927 9.62832 11.3587
Au 10.9876 5.10693 17.491
Pt 10.9161 10.4736 16.0143
Au 13.9257 4.50783 18.7209
Pt 20.0106 12.8991 7.94938
Au 7.13367 8.71294 19.6617
Pt 22.3813 9.93222 16.3946
Au 28.0531 13.2078 17.2735
Pt 14.9072 14.0065 25.1614
Au 26.2599 13.0656 11.2569
Pt 19.2377 22.9183 17.4005
Pt 18.3757 18.3028 22.3074
Pt 22.4749 18.0594 10.0199
Au 19.1124 9.02587 5.70804
Au 25.1496 9.54191 16.5974
Pt 17.9745 17.7392 8.64607
Au 26.7981 11.4889 15.4733
Pt 20.4133 16.3198 9.00015
Au 20.7636 11.3384 5.80213
Pt 8.16794 9.33695 13.0359
Au 26.0227 18.0503 13.6905
Pt 20.684 13.557 22.3268
Au 14.8042 11.3275 12.2038
Pt 19.9791 21.8371 19.6782
Au 20.3711 4.28079 14.2752
Pt 17.9609 9.53311 20.8867
Au 16.3458 17.8735 15.4113
Pt 19.1465 10.0706 18.6323
Au 17.8793 15.5132 15.8649
Pt 15.1482 23.0639 15.36
Au 12.1801 7.44702 24.4784
Pt 13.837 7.59295 22.4135
Au 21.5352 5.6907 18.6751
Pt 20.8876 17.6158 22.5724
Pt 22.4489 16.9073 7.48943
Au 15.4163 7.31197 6.34522
Au 9.59256 5.64877 19.9604
Pt 22.6176 16.3359 16.0493
Au 20.048 25.6916 9.86035
Pt 15.7626 16.487 7.543
Au 14.3194 22.7142 5.77358
Pt 20.701 14.0911 19.5927
Au 21.9378 10.3551 10.511
Pt 16.0685 13.6461 7.28208
Au 18.8663 17.2369 13.9657
Pt 22.089 18.8318 17.1877
Au 25.4084 20.5943 14.5683
Pt 20.0517 17.2576 16.659
Au 16.6682 4.65382 10.3675
Pt 24.241 18.3196 18.5715
Au 23.1446 20.0117 22.3115
Pt 11.7246 19.1063 22.6965
Au 8.67218 11.7085 24.1136
Pt 16.1737 18.7065 23.8069
Au 17.7129 6.88279 24.4443
Pt 17.2358 24.9259 15.7122
Pt 20.9415 8.46866 14.5834
Au 21.8674 5.9877 15.809
Au 10.4151 4.36068 11.352
Pt 22.1628 20.6214 10.3753
Au 11.6853 20.2579 5.43215
Pt 23.4884 19.143 12.752
Au 22.4046 11.4182 8.01449
Pt 23.8907 14.4163 11.873
Au 16.3925 13.0253 14.155
Pt 19.6863 24.0989 15.0308
Au 14.7775 20.4235 16.4128
Pt 12.8766 24.4128 15.46
Au 20.831 15.4231 14.306
Pt 18.8764 19.8209 12.622
Au 18.6563 16.7721 11.1968
Pt 19.2396 15.8387 21.1175
Au 8.23264 24.9301 14.7782
Pt 12.5412 22.8083 19.766
Au 6.11458 22.463 12.5183
Pt 13.6809 11.9956 23.7229
Au 10.5763 25.9778 15.6884
Pt 14.7153 25.0062 13.2955
Au 21.8122 20.2469 5.68836
Pt 17.0313 15.4043 5.30359
Au 26.354 15.4388 12.6681
Au 21.1645 24.1687 19.084
Pt 17.2972 22.3792 9.16516
Au 12.7942 26.7606 14.1377
Pt 24.6345 15.8683 17.8256
Au 20.3885 25.1877 12.5564
Pt 9.66961 22.2451 21.0778
Au 17.7211 18.1648 17.6873
Pt 14.7889 22.318 21.4715
Au 13.0506 24.3298 22.2121
Pt 15.8016 24.0918 10.8862
Au 26.5703 17.1319 19.2532
Pt 13.1739 21.1516 7.63534
Au 19.2475 19.574 4.98013
Pt 23.7106 11.5653 18.2046
Pt 18.2895 19.7046 19.8488
Pt 22.6161 17.9969 20.5411
Pt 22.1864 14.2471 7.83395
Au 23.7503 18.1969 5.72118
Pt 25.259 15.9023 15.167
Au 12.0035 5.00018 9.24408
Pt 12.6695 5.26075 12.792
Au 19.0009 6.07082 10.2506
Pt 22.2366 20.313 19.2896
Au 24.7033 19.8476 10.3842
Pt 20.6847 8.01063 17.2285
Au 24.9522 11.9472 20.6428
Pt 22.0419 11.9539 20.5769
Pt 14.7947 21.7792 18.7798
Pt 17.626 12.4483 8.90579
Au 17.4102 6.05098 7.84333
Pt 20.9136 21.1715 8.15706
Au 22.0475 15.1375 24.2125
Pt 22.2506 10.5922 13.6602
Au 19.5447 22.0558 5.97794
Pt 23.4907 13.9859 19.6219
Au 17.1353 15.6546 27.4039
Pt 21.9508 9.63545 19.0822
Au 14.8906 21.6385 25.8009
Pt 20.4535 14.5679 16.9097
Au 18.115 5.29425 22.2463
Pt 17.6287 6.83065 19.9713
Au 21.1023 21.661 23.2005
Pt 9.53992 17.3458 22.4823
Au 19.5228 19.7317 24.2735
Pt 23.967 18.4113 15.3901
Au 13.9766 11.9807 26.5754
Pt 19.1803 7.76005 22.3563
Pt 12.1919 13.9998 24.4617
Pt 20.0507 9.18198 12.2417
Au 15.3032 4.18767 16.3039
Au 26.3618 11.4241 18.2819
Pt 19.8285 20.0465 17.6289
Au 27.5303 14.1779 14.8039
Pt 19.9266 18.9741 10.0373
Au 21.8386 11.3519 23.4963
Pt 17.8754 7.43891 12.3733
Au 18.3838 24.6106 19.6067
Pt 17.209 22.192 19.9944
Au 14.1035 11.1516 4.24114
Pt 15.3821 10.984 7.21131
Au 17.3515 19.9567 25.9648
Pt 22.8942 13.8298 17.1277
Au 16.7253 12.8088 26.9824
Pt 17.2179 20.8779 17.5594
Au 17.1984 25.2961 8.92078
Pt 16.7128 16.1291 22.7917
Au 22.8376 7.46631 20.4067
Pt 18.0549 13.7309 22.5522
Au 19.3133 25.7305 17.2422
Pt 20.1306 17.8687 19.4419
Au 6.29399 13.4894 8.46314
Pt 12.8329 19.6346 9.81005
Au 22.8694 15.5698 5.05735
Au 14.0785 25.7782 9.04076
Pt 18.6088 12.9082 18.1706
Au 25.0064 10.1062 13.7132
Pt 17.6938 22.295 15.2038
Au 26.2471 18.3215 16.6572
Pt 19.4094 22.5283 12.949
Au 27.2932 15.7789 17.0121
Pt 25.3955 13.0359 13.7437
Au 11.9065 13.7375 27.0955
Pt 18.5414 23.9026 10.9045
Au 24.111 22.8705 15.7734
Pt 12.8433 21.4521 14.5046
Au 26.2705 14.1434 19.2479
Au 18.9558 26.6119 14.3538
Pt 17.0437 21.7982 11.9168
Au 25.2137 18.5378 21.2136
Au 24.7306 20.8339 19.9351
Pt 15.0069 23.5044 8.24814
Au 16.4099 9.58911 5.02388
Pt 25.4665 13.5916 16.6478
Au 11.2671 11.4667 25.4137
