561
Atoms. Timestep: 20328
Pt 5.59677 8.93405 15.2091
Au 5.60224 8.74264 11.4726
Pt 7.43291 10.8633 11.2876
Au 5.19479 9.18723 19.0837
Pt 5.50477 10.8208 13.1799
Pt 5.31466 10.8588 17.039
Au 7.492 16.7453 5.46567
Pt 7.48591 14.827 7.41019
Au 3.54888 12.7677 13.0665
Pt 5.53634 14.8608 9.31154
Au 3.57762 14.7514 19.1143
Pt 5.33509 12.8201 15.0855
Au 5.61151 7.10379 17.2356
Pt 5.21107 14.7783 17.0356
Pt 7.18553 10.9462 19.0728
Au 5.5399 12.9089 7.45023
Au 3.69807 16.871 9.39465
Pt 7.58944 18.7809 7.44972
Au 3.31323 14.7991 15.0075
Pt 5.53912 16.7628 11.2237
Au 3.33457 16.7575 17.0758
Pt 5.26306 16.7739 15.1207
Au 9.10302 12.3538 25.1415
Pt 5.12763 16.8636 19.1349
Au 5.20884 14.7564 21.513
Pt 10.1452 14.4007 23.6458
Au 5.50975 16.8231 7.35101
Au 3.68834 20.7182 13.2007
Pt 3.9341 18.808 11.2631
Au 5.09464 18.7606 21.0715
Pt 5.27795 18.7609 17.1675
Au 5.23742 20.728 19.1205
Pt 7.34072 20.6024 17.2724
Au 3.43297 16.8124 13.0037
Au 5.51905 22.6478 17.1745
Pt 5.47431 20.6894 15.2607
Pt 9.50231 7.03419 13.6033
Pt 9.37041 8.9831 11.385
Pt 7.39725 9.04914 17.2642
Pt 7.70313 7.06683 15.5013
Pt 9.59374 7.43059 17.4731
Pt 5.48188 12.8569 11.1718
Au 9.30669 8.79308 7.40738
Pt 11.3514 10.6549 7.41796
Au 7.44055 8.76849 9.42672
Pt 7.54288 8.98446 13.3619
Au 5.92678 6.88153 13.5215
Pt 9.35809 10.8047 9.3253
Au 9.83282 5.22466 15.7338
Pt 7.35149 10.9515 15.2346
Au 9.4286 9.13956 15.3675
Pt 9.36794 10.9715 13.2741
Au 7.7995 6.8649 11.5125
Pt 9.58586 6.2587 19.7649
Au 7.85184 5.4777 17.7211
Pt 9.25149 9.18037 19.4606
Pt 10.9153 9.55306 21.4032
Pt 9.43745 12.7174 7.40784
Au 15.0032 8.87793 4.60979
Au 5.48297 10.8281 9.4156
Pt 7.47095 12.8058 9.28859
Au 7.35713 10.7965 7.34824
Pt 11.6041 14.5719 7.30673
Au 3.54233 10.7768 15.0171
Pt 5.34666 14.812 13.0984
Au 7.3232 12.8426 13.1742
Pt 9.37062 12.8251 11.205
Au 3.35564 12.8026 16.9736
Pt 7.04721 12.8717 17.2026
Au 9.26469 11.0996 17.3418
Pt 9.20599 12.9163 15.2423
Au 4.90019 12.4122 19.2818
Pt 6.8625 12.5758 21.1703
Au 7.29489 9.72707 21.3912
Pt 8.85752 12.934 19.3556
Au 7.19049 11.1695 23.6022
Pt 9.49365 9.83818 23.5674
Au 10.8423 10.2314 25.902
Pt 11.3684 11.8132 23.8178
Pt 9.57201 14.7236 5.63313
Au 9.44307 10.8012 5.44171
Au 9.49698 14.8122 9.18119
Pt 7.47186 16.8011 9.2604
Au 11.5736 16.757 9.03043
Pt 9.4537 16.8463 7.28114
Au 7.43213 14.8033 11.187
Pt 7.31303 16.7498 13.2041
Au 9.35551 14.8417 13.1916
Pt 9.39191 16.7719 11.1749
Au 7.20676 14.8256 15.1532
Pt 7.0603 16.7181 17.2281
Au 9.01193 14.7878 17.2951
Pt 9.19648 16.6947 15.2587
Au 6.71907 14.6914 19.2821
Pt 6.94093 16.7817 21.2325
Au 8.67952 14.6804 21.3841
Pt 8.91006 16.5888 19.3642
Au 7.25085 13.8393 23.5464
Pt 9.3222 11.9431 21.9887
Au 10.5906 16.8043 25.7416
Pt 8.80444 16.684 23.3159
Au 9.71243 16.7477 3.91492
Au 7.53851 22.8491 11.3702
Pt 5.67517 18.7906 9.28814
Au 9.47298 18.7905 9.34074
Pt 7.61173 20.7629 9.4085
Au 7.40203 18.8104 11.2804
Pt 5.52864 18.7751 13.2528
Au 9.37183 18.616 13.2473
Pt 9.43439 20.7371 11.3737
Au 7.28793 18.6721 15.2639
Pt 9.39912 22.391 17.3805
Au 9.21132 18.5317 17.314
Pt 11.381 24.222 17.5571
Au 6.19791 16.2792 23.7591
Pt 7.42122 22.4492 19.227
Au 7.11626 18.6785 19.2207
Pt 9.24439 20.4758 19.3217
Au 8.40735 15.2425 25.5349
Au 8.70565 18.6191 25.1394
Pt 9.29279 22.35 21.2648
Au 5.50588 20.9642 11.1605
Au 5.59024 22.7311 13.4432
Pt 7.41931 20.7397 13.2744
Au 11.4045 20.5639 13.3807
Pt 9.47401 22.5883 13.4387
Au 9.37287 20.542 15.3224
Pt 7.52636 22.5514 15.381
Au 11.4615 26.3294 15.8443
Pt 9.53704 24.4022 15.5733
Au 6.86132 18.8444 23.1645
Au 3.44795 18.7579 15.0934
Pt 9.4491 24.1839 19.3554
Pt 11.0544 6.98794 11.4605
Pt 15.7542 9.53109 8.81735
Pt 11.7338 5.58509 13.6384
Pt 13.4779 5.9648 11.3473
Pt 11.672 5.71681 17.8229
Pt 13.6688 5.71115 15.7324
Pt 11.4399 6.95265 22.2658
Pt 14.0281 6.08361 19.8204
Pt 13.7148 7.36191 24.012
Pt 13.4292 12.4123 7.34271
Au 12.1023 9.95977 4.83517
Au 11.8058 7.88641 6.83672
Pt 11.2145 8.76255 9.40134
Au 14.4424 5.14255 8.89619
Pt 13.8802 9.58934 6.93822
Au 11.811 6.09051 9.0475
Pt 11.3188 9.01898 13.3813
Au 13.5367 7.42303 13.6316
Pt 13.1183 8.83414 11.3759
Au 11.5539 7.33502 15.6202
Pt 11.3902 9.39508 17.5537
Au 13.6029 7.59267 17.6314
Pt 13.4307 9.33779 15.5606
Au 11.7195 4.91234 20.4516
Pt 11.7361 7.62203 19.6644
Au 8.91847 7.65779 21.9498
Pt 13.2814 9.76535 19.4434
Au 7.17236 7.40925 19.5762
Pt 12.0887 9.26772 23.7079
Au 18.3699 9.82116 25.7011
Pt 14.1795 10.8821 24.1025
Pt 11.4339 12.6234 5.51537
Au 18.9115 6.50025 7.36029
Au 7.55419 12.9095 5.50565
Pt 11.3908 12.7029 9.26143
Au 15.3166 12.5258 9.21879
Pt 14.3137 11.4475 5.04637
Au 11.3165 10.8817 11.3012
Pt 11.33 12.9114 13.1901
Au 13.3422 10.9949 13.2792
Pt 13.3626 12.7495 11.1784
Au 11.3603 11.1234 15.3104
Pt 11.1531 13.0504 17.2872
Au 13.335 11.4651 17.4272
Pt 13.2922 13.0729 15.1894
Au 11.056 11.4618 19.5824
Pt 11.5079 13.4568 21.6648
Au 13.1147 11.2398 21.695
Pt 13.1966 13.2077 19.5795
Au 13.4701 9.12095 26.0365
Pt 12.3804 16.1554 23.9146
Au 12.9751 11.9278 26.2929
Pt 13.1562 13.6218 23.9673
Pt 11.6944 16.7266 5.81553
Au 11.6995 18.6027 3.84833
Au 11.6486 14.8346 3.80179
Pt 11.3181 18.9363 7.36688
Au 13.4567 14.7339 9.21239
Pt 13.7008 14.2973 5.5407
Au 11.419 14.8081 11.1758
Pt 11.4334 16.6655 13.2007
Au 13.4866 14.7425 13.0712
Pt 13.489 16.7219 11.1935
Au 11.2528 14.8454 15.212
Pt 11.1101 16.5671 17.3113
Au 13.2263 14.864 17.3067
Pt 13.4578 16.5218 15.1697
Au 10.9023 14.7229 19.3958
Pt 10.9249 16.2959 21.6303
Au 13.6877 15.1608 21.7121
Pt 12.9023 16.4822 19.4465
Au 10.8911 20.2967 25.2888
Pt 10.9448 18.4076 23.4143
Au 11.3012 14.0983 25.983
Pt 14.3442 18.0193 23.6757
Pt 9.51926 20.8566 7.53689
Au 11.4203 20.9314 5.46903
Au 9.36906 18.9851 5.42669
Pt 11.4467 20.8035 9.41202
Au 13.4348 18.741 9.1771
Pt 13.4186 20.9086 7.51525
Au 11.456 18.6453 11.264
Pt 11.3921 22.4543 15.4809
Au 13.4698 18.5733 13.3231
Pt 15.2392 22.7784 11.5651
Au 11.3508 18.4679 15.279
Pt 11.3035 20.4066 17.3791
Au 13.2389 18.324 17.2349
Pt 13.3859 20.4931 15.4274
Au 11.049 18.3926 19.4056
Pt 11.1302 20.3553 21.4207
Au 12.9171 18.1813 21.5072
Pt 11.3173 22.2252 19.4067
Au 9.05435 18.5018 21.3497
Pt 7.24748 20.57 21.1179
Au 13.2332 24.0285 23.3552
Pt 12.9294 20.3352 23.5036
Au 11.446 22.8913 7.50434
Au 7.68364 24.5857 13.6021
Pt 11.4114 22.6598 11.5191
Au 9.60427 24.706 11.5931
Pt 9.59146 22.7024 9.56215
Au 13.3901 20.6774 11.3968
Pt 11.3834 24.5171 13.645
Au 13.3198 22.5787 13.5318
Pt 13.2881 24.6048 11.6884
Au 13.2953 26.4412 13.7685
Pt 13.4002 25.9812 17.8066
Au 13.3613 22.2607 17.4968
Pt 13.3444 24.3634 15.6496
Au 11.3545 26.1007 19.5018
Pt 11.343 24.0768 21.333
Au 13.35 25.9437 21.3826
Pt 13.3839 24.0079 19.5506
Au 7.5712 24.4784 17.3854
Au 11.0508 22.3695 23.4452
Pt 13.1704 22.0978 21.4386
Pt 13.2548 10.599 9.36634
Pt 16.638 7.80362 6.45688
Pt 16.4626 10.3762 6.45745
Pt 15.4291 5.67521 13.4886
Pt 16.1378 5.20525 10.9517
Pt 15.761 5.97445 17.6531
Pt 17.4386 5.44075 15.306
Pt 15.7534 7.01623 22.3427
Pt 16.8273 5.85414 19.9928
Pt 15.8665 8.79996 24.4527
Pt 20.2745 7.50522 22.2452
Pt 16.1514 12.8657 6.1272
Au 16.945 11.1747 3.99982
Au 14.2603 6.75555 6.56853
Pt 13.8537 7.77378 9.02626
Au 18.1557 4.55724 9.32697
Pt 18.8687 11.9186 6.2041
Au 15.523 7.69966 11.3593
Pt 15.43 9.31632 13.5422
Au 17.4902 7.59372 13.3089
Pt 17.6808 9.12427 10.6209
Au 15.7459 7.56279 15.6187
Pt 15.4337 9.62492 17.5258
Au 17.7396 8.03796 18.2011
Pt 17.4784 9.73216 15.4519
Au 15.5267 8.23899 19.7778
Pt 13.5364 8.34108 21.6197
Au 18.1317 5.54793 22.3275
Pt 17.8434 8.02349 21.2178
Au 13.6474 5.35469 22.3167
Pt 15.7834 9.89053 21.981
Au 18.2394 7.69309 23.9904
Pt 16.9045 11.1785 23.988
Pt 16.1561 15.4951 5.19165
Au 18.8906 16.5873 5.02844
Au 18.8001 9.30606 5.3341
Pt 15.6818 14.7127 7.76614
Au 17.6879 11.5951 8.60522
Pt 17.3049 16.9077 7.20335
Au 15.4123 10.6984 11.2378
Pt 15.5145 12.783 12.9675
Au 17.6834 10.7346 12.9392
Pt 17.6043 12.9343 11.0056
Au 15.3116 11.3456 15.352
Pt 15.3624 13.2654 17.3596
Au 17.3592 11.4827 17.4339
Pt 17.4847 12.7737 14.8403
Au 15.3212 11.6173 19.7874
Pt 15.2502 12.804 22.4373
Au 17.9805 12.28 21.6868
Pt 17.3148 13.4225 19.3421
Au 15.74 10.6526 26.4984
Pt 15.2813 13.0817 25.4087
Au 16.8482 15.0908 26.3605
Pt 17.4062 13.7704 23.961
Pt 14.1116 16.621 6.96436
Au 13.81 16.6185 4.00881
Au 12.7673 12.4469 3.26174
Pt 15.5735 19.0635 7.48811
Au 15.5557 16.9396 9.31631
Pt 15.8221 18.0713 5.0287
Au 15.5753 14.7644 11.0482
Pt 15.5109 16.6395 13.1628
Au 17.6019 14.8071 13.0206
Pt 17.5836 16.9055 11.251
Au 15.5458 14.6416 15.0214
Pt 15.6159 16.3228 17.0894
Au 17.8724 14.5101 16.9776
Pt 17.5897 16.5522 15.1643
Au 15.1921 15.0617 19.4064
Pt 15.2749 15.4426 23.9208
Au 16.8421 14.8915 21.5619
Pt 17.462 16.6196 19.3301
Au 12.8425 18.387 25.7449
Pt 9.10913 20.4602 23.1606
Au 13.8139 15.4859 26.1542
Pt 17.7482 16.4979 24.0222
Pt 15.2815 22.8529 7.68621
Au 13.5418 22.6926 5.615
Au 13.6832 20.4987 3.89027
Pt 19.0592 22.9793 11.6513
Au 17.7865 18.8357 9.16299
Pt 17.3439 21.1929 7.67619
Au 15.4953 18.767 11.3432
Pt 15.3257 20.7064 13.4606
Au 17.3503 18.6971 13.4059
Pt 17.2668 20.9258 11.5445
Au 15.3873 18.4732 15.361
Pt 15.306 20.3427 17.4988
Au 17.3592 18.486 17.3753
Pt 15.2892 22.528 15.5294
Au 15.0657 18.0771 19.1466
Pt 14.9639 20.0131 21.6335
Au 15.7927 17.2793 21.6013
Pt 18.7695 21.5629 19.765
Au 15.1356 20.131 25.2166
Pt 15.0182 22.0242 23.4089
Au 15.9024 17.5639 25.7748
Pt 16.8455 18.9976 23.337
Pt 17.1289 23.0527 9.64453
Au 18.9896 25.0105 9.83017
Au 15.4158 20.8523 9.51745
Pt 13.3588 22.748 9.55073
Au 15.0907 24.854 9.65202
Pt 20.9387 23.0156 9.71408
Au 11.5299 24.6875 9.62119
Pt 15.1893 24.5718 13.6611
Au 17.2429 20.6064 15.464
Pt 17.1801 22.7562 13.5651
Au 15.1524 26.5189 15.8732
Pt 15.3522 24.2155 17.6818
Au 17.7633 27.2759 16.096
Pt 17.0189 24.7689 11.6905
Au 13.2339 20.1793 19.4437
Pt 15.3233 22.0473 19.5909
Au 17.1599 19.4772 20.0546
Pt 17.1413 22.3446 17.5825
Au 15.5121 25.9813 19.6839
Pt 15.2342 23.9322 21.5023
Au 17.6656 21.3138 24.28
Pt 16.9496 21.7853 21.7054
Pt 16.6531 6.99557 9.0116
Pt 17.8923 4.8997 12.8163
Pt 18.5995 6.616 10.9376
Pt 18.4403 5.49473 17.718
Pt 19.9459 6.41307 13.5275
Pt 19.4642 6.23699 20.0868
Pt 20.1027 9.01725 20.0018
Pt 19.6132 13.3271 8.98563
Au 18.0359 13.7396 4.13909
Pt 18.338 9.06919 7.95552
Au 20.7192 5.60043 9.14482
Pt 18.2059 14.3852 6.76998
Au 20.1481 4.44003 11.5692
Pt 19.8034 8.79485 12.2823
Au 22.5782 5.94364 14.0623
Pt 20.1497 8.23187 9.57389
Au 18.8471 7.5899 15.7349
Pt 19.8703 9.8497 17.3879
Au 21.0281 4.78574 18.464
Pt 20.451 7.31886 17.9421
Au 17.7098 10.2915 19.8431
Pt 18.979 9.97171 22.5298
Au 22.1193 7.09821 20.0924
Pt 22.0669 10.7359 19.6387
Au 20.7714 9.32229 24.3335
Pt 17.8246 12.5067 26.1693
Pt 21.9434 9.4958 21.9053
Pt 17.9043 19.2171 6.01175
Au 20.3393 19.3988 5.02417
Au 16.5031 5.15882 7.13281
Pt 21.5823 12.8655 7.33891
Au 21.0213 8.34471 7.01603
Pt 21.9163 14.7702 9.51208
Au 19.5667 11.0269 10.8148
Pt 21.801 12.1676 10.0347
Au 19.6841 12.6275 13.0629
Pt 22.175 9.4987 10.6344
Au 19.6183 12.3077 16.2207
Pt 20.9382 14.3839 17.1971
Au 22.1074 11.7481 17.2535
Pt 21.8562 12.6167 14.7444
Au 19.7174 12.1026 19.0893
Pt 19.3184 14.5824 22.3678
Au 20.8495 12.0531 21.7714
Pt 21.9923 13.4971 19.6509
Au 19.7054 11.9742 24.3673
Pt 19.4105 14.7322 25.3584
Au 21.4876 13.1426 26.128
Pt 21.4027 14.0921 23.6924
Pt 13.453 18.8728 5.86013
Au 18.5182 21.7294 5.33609
Au 15.3121 13.5262 3.48603
Pt 17.8542 15.1946 9.31322
Au 23.0958 10.4639 8.13857
Pt 19.806 18.0789 7.37578
Au 19.9073 14.7962 11.4191
Pt 19.5796 16.9648 13.1167
Au 22.472 13.8352 12.1499
Pt 23.5457 16.1285 10.9589
Au 19.853 14.8074 14.738
Pt 19.3895 16.6542 17.3447
Au 21.9228 16.6869 18.5733
Pt 21.4394 16.7427 15.7149
Au 19.514 14.9492 19.5421
Pt 18.6778 17.2871 21.6724
Au 21.4222 15.7621 21.2134
Pt 25.7575 13.2382 20.8348
Au 21.9627 15.8859 25.7508
Pt 20.4369 16.6787 23.7319
Au 19.3026 18.8908 24.5988
Pt 21.1594 18.4358 21.8981
Pt 20.0662 20.8121 7.29322
Au 22.3972 19.4328 7.01131
Au 15.7417 20.9991 5.49178
Pt 19.0898 21.2115 9.66708
Au 23.0348 15.0045 6.79404
Pt 21.0266 19.4461 9.30895
Au 19.3344 19.0543 11.4741
Pt 19.0726 22.8345 15.48
Au 21.5883 19.0349 13.7477
Pt 21.2767 21.4025 15.5855
Au 19.4093 18.5932 15.3764
Pt 17.1034 24.5926 15.6066
Au 21.9477 19.1336 16.7517
Pt 23.5864 20.4225 14.7609
Au 19.7898 18.5504 19.4259
Pt 18.9246 19.9813 22.1017
Au 22.5538 19.3344 19.2944
Pt 24.7282 19.5262 17.1881
Au 21.0784 20.8434 23.6389
Pt 17.4543 23.829 20.0037
Au 19.3712 22.7505 22.4923
Pt 20.4946 23.6188 20.2841
Au 22.9743 21.2252 9.40875
Pt 21.1226 21.0934 11.5908
Au 23.0646 23.0421 11.7245
Au 19.2898 20.8266 13.5981
Pt 19.0153 24.858 13.5762
Au 21.7357 25.3735 14.3596
Pt 20.9865 22.9757 13.5124
Au 16.9167 26.6248 13.6385
Pt 19.3744 23.4979 17.9559
Au 19.2992 20.4851 17.3609
Pt 19.637 25.4419 16.0838
Au 22.82 24.054 19.0386
Pt 17.6698 25.5113 18.0422
Au 25.7225 22.0917 15.7375
Pt 21.3504 21.754 18.4406
Au 20.5346 25.7532 18.6034
Pt 21.5042 6.77088 11.4211
Pt 20.4703 5.46532 15.8957
Pt 21.4727 8.02512 15.5832
Pt 20.3849 10.6763 8.27439
Au 24.0828 7.28676 11.8185
Pt 22.2197 8.55594 13.2292
Au 24.2795 7.9477 15.081
Pt 24.4585 9.82633 12.7484
Au 20.1609 10.1676 14.5755
Pt 22.5361 8.97267 17.7736
Au 22.8999 6.30303 17.084
Pt 23.1227 10.3269 15.1716
Au 24.132 8.95104 19.9978
Pt 23.931 11.2398 21.3853
Pt 24.2512 12.2599 18.8596
Pt 20.3453 15.5258 7.52774
Au 21.2241 10.7676 5.72301
Pt 24.1694 11.6179 10.8754
Au 22.8181 7.5155 9.0384
Pt 23.8816 13.1566 8.74433
Au 24.802 9.21608 10.0326
Pt 22.0203 11.1465 12.5853
Au 25.9212 10.5134 14.876
Pt 24.3605 12.5502 13.5281
Au 26.1904 10.7776 19.8792
Pt 23.4711 14.6352 17.6218
Au 24.9626 9.94721 17.4042
Pt 24.5043 12.5997 16.1974
Au 23.862 14.0642 24.8316
Pt 23.2862 13.6384 22.0582
Au 25.3303 12.3766 23.328
Pt 25.9942 14.3036 18.455
Au 22.6279 11.5302 23.9184
Pt 23.1185 16.1997 23.2337
Pt 23.4933 17.4375 20.8827
Pt 19.9546 16.9118 9.80097
Au 19.0802 23.3125 7.67026
Au 20.5589 14.1407 5.22106
Pt 23.0792 14.7652 15.0779
Au 26.5271 11.8404 12.249
Pt 22.4054 17.164 8.51026
Au 28.0253 15.5234 15.2678
Pt 22.0717 16.2634 13.1806
Au 27.2913 14.6014 12.5762
Pt 25.0975 14.0167 11.0366
Au 26.8195 13.1225 14.8013
Pt 24.7757 16.9957 18.2023
Au 26.8206 12.0014 17.4406
Pt 25.5323 15.2444 16.0082
Au 26.3024 16.7145 20.4782
Pt 24.1064 15.1013 20.1304
Au 25.5311 15.2026 22.6866
Pt 25.0679 19.3494 20.1381
Au 25.0629 18.1088 22.818
Pt 21.0399 20.941 20.8953
Au 22.4518 18.5331 24.3089
Pt 23.2631 20.0334 22.069
Au 24.2818 18.6492 9.82495
Pt 21.9289 18.1093 11.2581
Au 21.6424 17.0511 5.64515
Au 26.1614 16.7077 10.9622
Pt 24.2557 17.9528 12.8368
Au 24.8396 15.7081 8.70548
Pt 23.5276 20.2994 11.9738
Au 23.9738 17.5036 15.4333
Pt 26.5551 17.6847 16.1837
Au 27.6979 16.1514 17.9865
Pt 24.9004 15.3755 13.3431
Au 25.9604 21.4386 18.5313
Pt 23.5436 21.9459 17.1758
Au 27.1073 18.7168 18.6791
Pt 23.6352 21.6591 19.9235
Au 22.4396 22.8245 22.0161
Au 21.0195 24.9834 11.6632
Pt 23.3241 23.0492 14.6225
Au 26.1657 19.4866 11.7678
Au 25.3121 21.8963 13.0601
Pt 21.6411 23.8511 16.6004
Au 26.9396 17.2794 13.5085
Pt 25.9084 19.5608 14.4649
Au 27.4614 20.2171 16.5162
