561
Atoms. Timestep: 20867
Pt 11.7453 9.26799 21.3709
Au 6.18435 7.3747 13.4213
Pt 9.25845 8.63224 20.07
Au 8.13695 5.42925 14.1501
Pt 10.7706 13.331 9.84132
Pt 8.04453 13.3269 16.2483
Au 8.35286 9.0784 6.76877
Pt 6.20571 12.6586 14.1646
Au 3.56795 16.3541 14.4852
Pt 11.0211 10.4704 19.1118
Au 5.94035 21.8533 16.9997
Pt 9.33452 8.95305 17.4176
Au 11.0522 2.69554 14.5387
Pt 7.83848 10.6164 18.9503
Pt 12.2526 10.9908 24.877
Au 4.24418 13.9337 10.1962
Au 4.90918 10.2623 17.862
Pt 6.45193 20.1299 14.9602
Au 10.9766 8.73221 5.58227
Pt 6.74217 17.3887 17.8721
Au 8.26354 25.5089 14.8853
Pt 7.51061 18.4993 13.125
Au 10.994 13.3056 25.9133
Pt 11.232 19.033 25.2147
Au 6.97411 11.9551 21.8007
Pt 8.4393 13.0678 19.0626
Au 6.16856 20.1935 9.48456
Au 19.366 11.3576 25.4521
Pt 11.6691 22.0325 9.76025
Au 6.09347 20.756 12.2449
Pt 10.7537 19.4309 14.3357
Au 12.7972 25.7367 20.8931
Pt 8.57094 16.1744 22.5262
Au 8.13358 18.1544 6.48112
Au 8.6678 18.0514 24.909
Pt 12.1496 15.6113 9.0593
Pt 11.9132 9.44577 16.7311
Pt 9.83368 8.20168 10.3707
Pt 10.3156 14.2494 17.4204
Pt 11.9491 5.04983 15.2152
Pt 6.54067 10.0735 13.7702
Pt 10.1436 9.6602 14.8216
Au 3.99613 14.046 18.4178
Pt 7.55205 11.457 11.6056
Au 5.83917 9.589 20.3328
Pt 11.0951 13.0718 19.744
Au 7.23739 7.141 20.4667
Pt 9.6459 11.8636 7.84758
Au 15.0566 4.02034 10.8763
Pt 11.331 9.42199 12.3977
Au 9.97196 9.94975 23.6735
Pt 13.4257 9.21469 19.0757
Au 7.70208 9.28792 22.2336
Pt 8.01848 8.16872 15.1781
Au 22.2536 13.5101 24.1341
Pt 13.6797 16.7374 20.3796
Pt 14.7605 8.1412 21.2011
Pt 5.78981 16.1312 13.0228
Au 13.3599 10.3412 4.49496
Au 7.97934 6.58292 11.5804
Pt 8.4256 15.9664 16.4208
Au 6.26311 9.03229 11.0943
Pt 8.50667 18.629 15.8621
Au 3.9883 14.0238 13.0281
Pt 10.808 17.2031 16.2296
Au 17.4502 18.6403 9.32982
Pt 10.5896 9.4164 8.25614
Au 7.56666 22.4771 19.1735
Pt 6.21128 17.4423 15.2663
Au 12.5742 4.16 19.9709
Pt 6.86976 8.36278 17.9749
Au 9.05461 12.4459 23.9933
Pt 9.75216 11.5687 17.1404
Au 10.5437 4.58795 12.6692
Pt 13.3187 11.4609 20.5081
Au 5.28437 8.5647 15.7393
Pt 17.8926 9.88872 18.6614
Au 21.3477 10.3065 23.7936
Pt 10.3474 6.99105 16.1097
Pt 8.6814 21.2044 16.0374
Au 5.87129 17.754 8.1958
Au 19.8988 15.9923 4.82832
Pt 8.01395 16.1977 11.7841
Au 16.3392 20.2 5.1497
Pt 9.82151 18.0417 11.582
Au 17.297 20.705 12.8877
Pt 5.62067 12.5541 16.8423
Au 15.7636 19.3483 16.9733
Pt 13.5863 20.0348 10.1524
Au 14.9017 22.2166 6.61038
Pt 9.42792 11.1089 21.1122
Au 17.4557 23.1448 6.12796
Pt 6.3491 15.6645 9.85566
Au 5.75263 16.3902 22.3685
Pt 7.47542 17.5348 20.4498
Au 12.0723 8.29988 23.9538
Pt 5.87674 12.3811 19.4312
Au 7.68801 7.50092 8.9842
Pt 13.2582 15.9759 23.0656
Au 17.1046 12.8823 26.086
Pt 13.0372 13.3152 24.0779
Au 4.76033 11.4691 12.1624
Au 20.0931 26.7104 14.7967
Pt 14.4423 15.2285 7.69358
Au 5.81423 13.9266 7.8402
Pt 10.1116 22.3998 17.9774
Au 9.75792 16.2107 5.30346
Pt 5.74204 14.9208 15.5682
Au 10.4107 21.9779 7.2798
Pt 11.2252 21.9713 15.5631
Au 8.31955 20.3972 7.90706
Pt 9.45212 16.9634 13.9636
Au 12.3083 16.6466 14.025
Pt 21.8281 21.523 15.243
Au 14.4385 7.02145 23.6664
Pt 13.5378 20.3067 25.7744
Au 9.30837 22.693 21.3328
Pt 9.52969 18.5375 21.8429
Au 7.37509 20.4563 21.0836
Au 4.17869 16.496 17.1444
Pt 11.7432 21.2629 24.0614
Au 9.30741 24.7081 19.0017
Au 15.5624 26.1714 20.5409
Pt 7.47842 19.9397 18.0706
Au 5.4288 19.0829 19.6636
Pt 10.8362 19.816 17.1803
Au 4.89193 19.2106 16.9471
Pt 9.29902 18.0012 18.4565
Au 11.8166 23.6379 22.7185
Pt 11.5721 23.5258 20.0272
Au 6.99973 18.6352 22.9607
Au 8.9041 15.1596 25.133
Pt 10.7941 16.8851 23.918
Pt 17.4215 7.8661 7.16295
Pt 16.5545 6.14878 9.44379
Pt 20.5698 12.2267 7.60374
Pt 11.6654 6.82342 11.5368
Pt 12.1026 6.86239 8.78477
Pt 15.0219 12.6123 22.5905
Pt 13.7802 10.205 22.8258
Pt 15.1115 7.79727 14.821
Pt 16.0619 10.5807 21.0473
Pt 9.42834 15.6594 9.80355
Au 8.6229 6.27889 18.1669
Au 13.744 2.71709 15.2907
Pt 8.61815 9.19881 12.5124
Au 9.8396 5.54034 9.83678
Pt 11.65 11.2401 6.33175
Au 9.89436 6.90813 7.38627
Pt 12.7184 8.95996 10.1597
Au 3.93159 16.4254 11.2723
Pt 12.4045 11.3186 9.17759
Au 9.80519 7.49536 22.4385
Pt 12.9152 14.0252 21.418
Au 6.664 6.19823 16.2628
Pt 15.901 6.18712 12.5518
Au 25.1823 10.4814 18.4878
Pt 11.5059 11.8848 22.4425
Au 4.25818 11.0395 15.0444
Pt 11.3285 5.33874 17.9233
Au 6.99282 14.1804 23.4061
Pt 14.1751 6.58406 10.5253
Au 17.9545 4.3473 18.6976
Pt 14.9353 17.9567 22.3418
Pt 13.4126 13.1285 5.19364
Au 22.2282 6.48606 13.2774
Au 4.61065 18.6537 13.3283
Pt 7.3428 10.607 16.236
Au 12.5218 17.607 4.69813
Pt 7.98824 13.3006 9.33129
Au 3.42778 13.6978 15.7097
Pt 9.10113 13.6189 11.8601
Au 14.7993 17.3974 9.40796
Pt 11.3547 7.66653 18.9047
Au 12.6902 14.7689 16.1793
Pt 6.60541 14.7917 18.102
Au 14.8765 26.9067 11.6613
Pt 13.8418 8.27909 12.5526
Au 14.729 12.3462 15.1361
Pt 12.584 15.5527 25.5638
Au 9.44949 4.33791 16.2163
Pt 11.0578 16.1358 21.2662
Au 12.3108 4.38422 10.3916
Pt 6.88831 14.6602 20.7022
Au 15.3609 3.79074 19.3485
Pt 17.4239 17.6817 21.9524
Pt 10.0477 14.4554 7.48457
Au 8.0131 13.7031 5.9662
Au 9.17892 11.1493 5.27583
Pt 8.22929 18.0266 9.40375
Au 14.235 16.2036 12.046
Pt 14.5459 15.5828 5.04523
Au 15.5406 13.3419 12.5918
Pt 12.4451 21.5536 13.3368
Au 15.2746 17.6866 14.3093
Pt 7.80882 15.8139 7.68568
Au 11.3586 12.1733 12.489
Pt 10.8571 14.4078 23.3849
Au 11.5667 12.2001 15.3337
Pt 16.4716 21.0342 10.1649
Au 11.1741 15.4475 11.8722
Pt 13.8817 6.40185 19.3006
Au 13.1121 10.2945 14.2489
Pt 16.2956 20.3566 21.391
Au 17.6347 15.6035 26.2887
Pt 16.3213 19.5277 24.2106
Au 11.6531 2.83454 17.1669
Pt 13.7126 19.6023 20.7648
Pt 12.951 23.5846 11.5452
Au 12.1112 26.2063 11.9646
Au 15.2215 24.778 7.44101
Pt 6.42277 13.7971 11.6912
Au 15.2616 13.6094 3.40289
Pt 6.06319 18.0727 11.021
Au 4.93718 16.3427 19.7708
Pt 9.26735 23.1882 14.29
Au 9.50187 25.2286 12.3947
Pt 12.2534 21.2124 19.1286
Au 13.2951 13.7451 10.7594
Pt 8.75296 20.7948 13.3642
Au 18.2019 18.2758 4.08168
Pt 8.47959 20.2891 10.8259
Au 14.9397 20.5201 14.467
Pt 14.1116 20.3669 23.2446
Au 13.0635 18.6579 15.637
Pt 11.3788 18.5914 20.0493
Au 13.7804 13.3474 26.7135
Pt 13.7876 17.9024 24.7705
Au 17.3196 24.9407 22.3433
Pt 18.6292 19.7538 23.0151
Au 6.63356 22.795 14.483
Au 7.65546 23.0257 11.9246
Pt 14.3061 22.5442 9.37399
Au 10.9228 24.6287 9.95163
Pt 9.57469 20.4579 19.6432
Au 24.035 10.7276 11.3088
Pt 12.6123 23.4383 17.4711
Au 19.3182 25.9583 17.451
Pt 14.2572 25.0528 13.4524
Au 13.3407 27.4838 14.0703
Pt 13.9283 22.6698 24.3026
Au 15.7639 18.6982 11.6706
Pt 17.9253 25.1953 14.7822
Au 16.0109 27.1222 14.278
Pt 13.4329 21.0181 16.7503
Au 21.9648 25.9663 16.8009
Pt 16.3398 23.1047 20.6574
Au 15.8648 21.6167 25.939
Au 8.95015 22.6179 9.51577
Pt 10.4678 24.5747 16.3209
Pt 12.4892 13.3551 7.62996
Pt 10.0305 10.905 10.5756
Pt 7.98895 10.1617 9.26257
Pt 17.5037 8.06891 13.5802
Pt 18.4113 11.9276 6.0822
Pt 15.303 13.2649 20.0993
Pt 17.1557 5.85313 14.9127
Pt 15.9719 6.09379 17.3109
Pt 19.9458 9.59022 16.8976
Pt 17.4517 12.9349 21.4929
Pt 13.3502 5.44185 12.8701
Pt 14.892 12.7768 8.84978
Au 12.3869 15.0764 3.61796
Au 5.68576 11.667 9.58373
Pt 7.81751 14.7496 13.9784
Au 14.1125 4.97735 8.33064
Pt 16.0751 11.4038 4.79503
Au 20.0304 7.78151 6.16436
Pt 17.5632 9.04106 9.43001
Au 20.7358 6.11991 10.9142
Pt 14.921 10.1445 9.20545
Au 11.6437 16.3899 18.5353
Pt 13.3393 7.1572 16.8886
Au 25.3338 12.2443 20.7576
Pt 18.1821 7.10938 11.2495
Au 23.157 5.51173 17.851
Pt 17.2548 8.56946 16.2508
Au 22.8868 18.505 22.716
Pt 15.3661 11.1123 18.5943
Au 17.7249 4.49124 11.4349
Pt 14.5646 5.30877 15.0867
Au 16.273 3.5429 16.4371
Pt 17.3298 11.486 23.5982
Pt 17.7584 18.4273 6.66073
Au 20.5884 18.4205 5.67341
Au 10.3766 14.483 14.5472
Pt 12.1739 15.6287 6.33093
Au 12.2175 17.7506 10.5006
Pt 14.9244 7.76402 8.29511
Au 17.6864 14.371 15.4366
Pt 19.0558 24.9155 10.2868
Au 18.0824 13.6628 11.3042
Pt 15.8835 10.1975 13.5205
Au 15.7117 13.7422 17.3191
Pt 22.3469 9.61817 18.6028
Au 15.9827 18.375 19.5009
Pt 19.0699 10.0039 14.5375
Au 16.1926 15.6522 19.2919
Pt 15.2413 14.4827 24.6831
Au 22.2694 7.12388 20.004
Pt 18.6701 19.267 17.5832
Au 14.7141 5.12548 21.7004
Pt 16.1156 9.12875 23.3176
Au 14.9255 16.0954 26.8269
Pt 14.9521 11.6297 24.9739
Pt 10.6583 19.5937 9.02478
Au 10.6701 13.4787 5.00563
Au 13.1245 6.76727 6.27395
Pt 12.7648 18.1252 7.68564
Au 22.7503 16.8489 6.55642
Pt 21.3181 14.6985 6.99851
Au 21.8591 25.1823 11.2463
Pt 12.7675 20.8764 7.70964
Au 19.3713 16.6167 14.5799
Pt 15.163 19.8137 7.9985
Au 13.2283 18.9764 12.7855
Pt 20.2792 14.8446 22.7055
Au 8.8897 11.8624 14.0294
Pt 23.7791 13.6959 17.2855
Au 14.4886 16.6416 17.207
Pt 9.24056 13.7438 21.5413
Au 13.3857 14.4229 18.7794
Pt 13.2808 18.7781 18.2909
Au 12.8685 18.0037 27.2175
Pt 9.0924 15.6129 19.464
Au 10.0696 5.7307 20.3778
Pt 11.3563 20.959 21.5991
Pt 17.0928 16.1415 5.26679
Au 10.7704 19.3651 6.19853
Au 20.511 13.2063 4.79092
Pt 20.19 19.2473 15.0661
Au 25.0047 13.4086 10.6418
Pt 21.6985 10.7472 9.71156
Au 19.0452 20.7211 5.38516
Pt 17.9076 22.9741 11.5488
Au 15.1412 15.1182 14.8622
Pt 16.7382 23.3786 8.98206
Au 21.2053 24.3168 8.71426
Pt 14.7501 21.6516 12.0372
Au 17.0701 15.8558 12.9404
Pt 11.1095 20.2119 11.5872
Au 17.2471 16.806 16.7661
Pt 8.03692 23.625 16.7648
Au 14.593 24.5882 22.5698
Pt 22.2145 22.8738 13.0572
Au 10.4967 16.7918 26.6435
Pt 18.7185 21.9845 21.5475
Au 18.4697 21.0384 25.3065
Pt 11.6927 24.1656 13.8576
Pt 21.5631 21.5794 8.73734
Au 12.5547 23.7181 7.70136
Au 17.8723 13.9251 3.99355
Pt 19.1192 20.5224 10.6038
Au 23.2169 22.9767 10.3167
Pt 23.9901 20.0412 16.0011
Au 18.3769 26.2053 20.123
Pt 10.3492 22.6781 11.9408
Au 18.5009 18.3004 12.3134
Pt 15.5574 24.1755 11.2854
Au 21.8028 20.7143 6.28193
Pt 12.9418 25.5288 15.8663
Au 24.5423 21.1889 11.8373
Pt 23.0514 23.6996 15.918
Au 13.6682 25.4205 9.62605
Pt 18.8896 16.7027 23.9851
Au 17.533 21.4822 18.655
Pt 18.1139 23.6204 16.8142
Au 18.7578 9.12533 23.709
Pt 18.882 22.5634 14.0926
Au 20.7079 21.8304 23.4971
Pt 16.6411 24.8512 18.5111
Pt 16.7835 10.5091 7.40178
Pt 22.1644 13.2689 21.441
Pt 16.529 11.4463 10.8156
Pt 23.7355 9.45615 16.3381
Pt 20.0982 7.98681 12.896
Pt 19.68 21.5094 16.5583
Pt 12.324 7.60972 14.4828
Pt 23.4045 10.9151 14.112
Au 23.9045 9.47449 20.7729
Pt 20.2489 11.2812 18.7985
Au 21.4995 5.3195 15.6341
Pt 15.9071 8.6545 11.238
Au 6.99835 11.5 7.12954
Pt 13.0178 9.18264 7.33029
Au 20.5431 5.36751 18.4452
Pt 21.5115 10.09 12.3632
Au 15.9042 3.58664 13.5086
Pt 9.95426 7.1519 13.4586
Au 18.9796 4.55075 16.2283
Pt 21.2246 14.752 15.9403
Au 12.3748 6.61681 21.6032
Pt 17.6619 8.39671 20.9264
Au 19.2278 6.13029 20.7623
Pt 16.5154 6.26244 19.9799
Au 26.1244 14.2764 15.5854
Pt 18.5664 19.5189 20.3155
Pt 17.6969 12.478 18.8869
Pt 17.4135 13.034 8.48602
Au 15.2614 8.71496 5.63452
Au 22.7028 8.15935 10.9126
Pt 21.9506 20.4671 11.0343
Au 22.3532 10.067 7.16695
Pt 23.3619 15.5133 11.0489
Au 13.6768 19.8531 5.45378
Pt 14.3686 11.3394 6.79766
Au 15.3725 17.9036 3.91666
Pt 18.533 17.1103 19.3181
Au 18.2698 16.3085 10.4083
Pt 20.2737 17.5536 21.9333
Au 12.927 11.9636 17.6661
Pt 15.8191 8.37051 18.6245
Au 13.0411 13.9697 13.5317
Pt 19.788 13.2414 20.4397
Au 19.5247 12.5078 16.411
Pt 14.9487 21.145 19.1111
Au 13.0853 2.88981 12.6765
Pt 15.6573 15.2737 22.046
Au 14.2651 9.13046 25.4202
Pt 19.8638 12.3242 23.0114
Pt 15.1303 17.6641 6.54378
Au 18.5933 11.4311 3.47444
Au 19.1832 6.57698 8.65442
Pt 18.692 14.4536 6.6032
Au 26.4358 16.7724 13.9054
Pt 16.0381 13.6118 6.2246
Au 20.2189 22.917 6.52755
Pt 23.9714 17.433 13.126
Au 21.1513 17.9115 12.7614
Pt 19.0067 11.3851 9.65107
Au 17.7858 12.172 13.6564
Pt 22.8903 19.9814 19.7227
Au 26.0532 18.0067 16.319
Pt 20.9222 18.2796 19.4323
Au 14.6525 9.78417 16.4603
Pt 16.3927 22.1352 23.2142
Au 17.0724 11.3028 16.2654
Pt 22.6256 15.8556 22.1418
Au 18.2271 18.3856 25.8849
Pt 17.6775 14.2711 23.7383
Au 9.21781 20.5357 23.5018
Pt 23.3697 17.3581 20.1273
Pt 21.5844 7.56275 17.226
Au 24.5089 17.277 8.82864
Au 15.7868 5.96225 6.50847
Pt 22.0754 18.8183 8.23102
Au 25.5459 18.732 11.1957
Pt 22.9643 18.1376 10.7787
Au 15.8477 14.8919 10.2366
Pt 19.6939 19.8451 7.97768
Au 17.0136 16.0442 7.976
Pt 22.7822 21.7488 17.8226
Au 19.741 14.1202 13.6283
Pt 13.8527 23.0206 15.0526
Au 18.8151 14.7615 18.0376
Pt 19.8451 24.6718 12.8697
Au 20.639 15.3877 11.3884
Pt 18.8595 10.6344 21.2154
Au 14.4089 26.4313 17.9943
Pt 18.8699 23.6528 19.5238
Au 10.7639 26.6137 14.5016
Pt 14.2063 24.0078 19.3945
Au 18.6222 23.4076 24.1173
Pt 15.4406 22.7999 17.2289
Au 23.9603 14.6219 8.14476
Pt 17.3715 20.9948 7.60793
Au 25.0711 19.5132 21.1657
Au 18.5543 25.0114 7.69808
Pt 19.0891 22.4938 8.86636
Au 22.3876 25.4602 13.9469
Pt 22.1705 11.548 16.6617
Au 17.4584 25.9351 12.2365
Pt 17.1642 21.3883 15.7583
Au 17.6154 18.8318 14.9185
Pt 13.8122 22.2657 21.4134
Au 16.9389 27.0326 16.8765
Pt 23.8364 18.1747 17.7272
Au 24.58 22.1417 14.3665
Pt 20.4966 24.0586 15.3613
Au 24.5224 22.1496 19.9483
Pt 23.3227 13.4038 14.8396
Pt 22.4689 16.0661 17.8597
Pt 21.5494 19.5261 17.2537
Pt 21.869 16.2219 9.07885
Au 17.9876 9.32794 5.0209
Pt 21.0024 11.8831 14.256
Au 19.441 5.37143 13.4089
Pt 18.4648 10.049 11.9623
Au 13.8944 11.0949 11.6642
Pt 23.7086 14.6455 19.8633
Au 17.2859 4.19569 21.3707
Pt 18.4633 7.06067 18.0483
Au 24.3838 7.81918 18.3695
Pt 20.0662 8.56663 19.4907
Pt 20.9028 15.6924 20.0481
Pt 20.0792 8.77022 10.2663
Au 21.6413 7.79283 8.3907
Pt 24.8145 14.8012 13.1688
Au 24.6065 14.1124 22.5739
Pt 19.6397 14.3073 9.09429
Au 26.1444 13.1441 18.3018
Pt 20.3809 12.341 11.6012
Au 21.5525 16.4122 24.5399
Pt 23.1396 11.9883 19.3185
Au 23.2184 21.2301 22.2747
Pt 22.8829 19.867 13.5272
Au 16.9475 9.99227 25.7937
Pt 19.512 7.23677 15.4804
Au 26.2718 14.9604 20.3835
Pt 12.1696 18.6114 22.6818
Au 19.834 14.1513 25.3639
Pt 25.2585 15.7818 17.9274
Au 20.6634 8.22286 22.049
Pt 13.742 4.45873 17.3998
Pt 16.2536 16.8635 24.383
Pt 19.5199 9.77106 7.69224
Au 22.8589 12.6487 6.29364
Au 25.9261 16.1008 11.0977
Pt 21.3494 13.6733 18.3698
Au 25.1662 16.8219 22.0221
Pt 19.699 16.8846 7.72379
Au 20.695 19.0436 24.4372
Pt 21.6438 8.9401 14.8569
Au 19.9807 24.391 21.9179
Pt 20.32 21.1674 19.133
Au 23.933 11.8079 8.65995
Pt 22.0631 13.4605 9.66989
Au 21.8287 22.8725 20.5531
Pt 22.1726 15.4774 13.5886
Au 15.6105 18.7815 26.7107
Pt 20.9138 20.0974 21.5411
Au 25.19 22.5006 17.0662
Pt 21.4738 10.6816 21.0966
Au 17.0419 6.5762 22.7542
Pt 18.2639 15.3713 21.1874
Au 16.1061 24.1626 24.8545
Pt 15.5498 24.9867 15.9021
Au 20.5787 10.4598 5.19419
Pt 10.3017 17.2155 7.83833
Au 24.0669 20.263 9.26104
Au 25.637 19.4731 13.9061
Pt 24.1391 16.0325 15.5571
Au 23.7391 6.94038 15.5831
Pt 16.2806 23.2664 13.7989
Au 26.1132 17.6655 19.4874
Pt 22.3015 17.7343 15.3778
Au 24.0136 8.54378 13.3115
Pt 22.8096 13.0162 12.2651
Au 21.0691 25.5197 19.6069
Pt 20.5525 22.7716 11.0671
Au 23.4373 24.3146 18.5762
Pt 20.881 23.5424 17.845
Au 23.6019 11.4339 22.7363
Au 16.5742 26.0351 9.53872
Pt 20.282 20.7598 12.9892
Au 25.2905 11.6715 15.999
Au 25.5183 20.1467 18.38
Pt 20.3014 18.1962 10.1265
Au 25.5272 12.2713 13.2349
Pt 20.1704 17.0682 17.1151
Au 11.7313 25.8752 18.3808
