561
Atoms. Timestep: 20562
Pt 15.8144 6.57358 15.7756
Au 13.6758 25.7206 16.6614
Pt 20.4386 19.1864 16.8624
Au 26.51 19.3556 15.9639
Pt 23.4334 13.2353 19.8642
Pt 8.53576 22.0213 20.4815
Au 20.5053 17.3936 4.4208
Pt 25.1547 14.8762 16.3243
Au 26.6059 12.3926 14.8766
Pt 17.8733 15.9097 14.898
Au 15.549 23.5312 17.2052
Pt 20.7953 16.8865 21.6705
Au 20.9918 4.78855 16.4487
Pt 24.4184 17.7168 15.0609
Pt 22.0798 19.0404 14.6121
Au 10.1433 21.9021 24.654
Au 24.2688 21.1306 8.5203
Pt 16.8439 20.6486 12.9622
Au 12.7221 10.9776 26.6492
Pt 13.1496 23.2965 15.6518
Au 8.45876 16.5575 25.6539
Pt 16.6568 20.5247 21.0295
Au 6.88791 18.2512 24.0179
Pt 13.3934 22.4033 21.1155
Au 14.2787 13.2726 27.1386
Pt 15.5815 14.2233 8.11764
Au 6.23961 12.6445 23.5804
Au 19.5123 5.05286 18.6864
Pt 11.7947 17.7949 8.9871
Au 24.3024 23.0557 16.0786
Pt 13.5391 9.88332 20.5836
Au 18.6191 6.80807 11.881
Pt 12.3492 20.299 9.93404
Au 9.40229 7.78069 9.23752
Au 20.0601 23.9813 10.1326
Pt 16.7865 12.4262 22.5246
Pt 5.66009 12.8375 15.3386
Pt 15.9658 7.08792 13.1789
Pt 5.94585 17.726 17.4983
Pt 10.3288 11.3937 12.8524
Pt 15.9525 16.3571 24.4956
Pt 9.42406 15.7228 19.9275
Au 13.8916 5.55121 11.832
Pt 17.8979 23.0933 13.3535
Au 9.24582 19.3118 25.1799
Pt 18.1781 16.7378 20.6264
Au 12.7207 21.1807 23.7059
Pt 22.7559 11.5877 17.914
Au 19.8062 4.9326 13.9439
Pt 11.6792 10.6837 18.6668
Au 25.4634 8.13608 16.8159
Pt 7.29141 12.3668 10.7217
Au 11.8058 22.7219 6.14999
Pt 14.3189 11.2141 7.66279
Au 5.15725 19.6766 22.4409
Pt 9.36208 16.9923 13.0933
Pt 20.0396 22.8225 14.7771
Pt 7.69766 19.4799 21.4048
Au 25.6714 19.0293 18.4572
Au 17.7536 7.29416 22.5618
Pt 15.9441 9.26821 8.507
Au 5.45908 19.5194 12.002
Pt 21.695 14.3567 21.4713
Au 8.95938 20.0441 5.93752
Pt 17.955 22.1301 10.8462
Au 17.9498 24.1884 15.9878
Pt 22.0149 10.4934 9.98409
Au 12.2086 11.528 5.93223
Pt 9.32564 17.424 15.9226
Au 14.3972 25.2636 19.2189
Pt 9.64161 10.0109 22.3982
Au 9.7383 21.0963 9.71523
Pt 13.2506 22.8254 18.4043
Au 11.7711 5.1163 14.4047
Pt 17.4161 13.878 13.2194
Au 23.7983 17.4761 7.97169
Pt 16.0018 16.8496 9.86286
Au 17.9546 11.3882 25.0627
Pt 14.4464 16.8177 14.3355
Pt 15.1857 15.4103 5.55983
Au 25.3222 17.2565 20.4007
Au 18.232 18.7613 5.16667
Pt 17.6691 18.8278 19.1397
Au 20.4591 23.5449 19.9193
Pt 14.8222 12.8455 5.70448
Au 11.8822 7.52009 25.3801
Pt 23.1142 12.8227 10.6799
Au 7.81375 9.65758 10.1963
Pt 18.4845 9.73518 7.5382
Au 16.1912 20.1772 4.16002
Pt 14.7368 9.88564 13.5736
Au 15.5317 26.7341 14.9449
Pt 10.9161 18.0843 6.33898
Au 13.6065 24.2172 7.75851
Pt 14.2592 19.7244 22.1254
Au 6.92533 9.92598 22.5001
Pt 12.9565 11.4241 23.9254
Au 15.7357 5.50848 21.2293
Pt 8.82108 14.7584 22.418
Au 7.42713 20.7828 8.14885
Pt 19.6506 20.2661 14.4042
Au 3.89935 16.0447 20.3501
Au 22.344 24.1607 14.662
Pt 7.61262 10.5058 12.7564
Au 22.2278 13.3427 6.35485
Pt 16.1304 13.4286 19.986
Au 14.0713 4.37881 19.2714
Pt 20.1372 14.9205 13.6088
Au 16.7286 8.91047 24.649
Pt 19.814 18.5311 9.62828
Au 6.12008 9.09043 20.0619
Pt 20.2286 22.119 12.202
Au 23.5146 6.75838 11.9819
Pt 9.40653 11.1501 19.9448
Au 15.3272 15.7721 27.1166
Pt 21.2359 11.8666 21.219
Au 20.0709 6.48693 21.2134
Pt 15.5597 10.4278 11.0197
Au 22.1586 18.7486 6.18096
Au 11.5002 20.3241 4.79251
Pt 6.46141 15.6867 19.1419
Au 25.7125 16.6201 9.72051
Au 20.7049 10.3206 19.0461
Pt 25.1475 13.1044 12.5533
Au 10.3525 15.5111 5.00375
Pt 18.1954 14.12 18.5031
Au 9.30494 22.45 7.24538
Pt 9.13606 11.5671 8.74125
Au 6.84695 17.0914 12.0259
Pt 10.8617 22.6217 16.8507
Au 6.93159 18.3083 6.96805
Au 6.13142 22.6555 18.7451
Pt 8.14939 19.0924 10.8509
Pt 17.4715 18.5613 8.02535
Pt 21.0562 7.93054 10.8313
Pt 12.0966 21.0495 12.5326
Pt 11.7389 11.8691 9.09308
Pt 19.8878 17.1314 11.9764
Pt 24.3415 10.4355 16.1318
Pt 9.72228 20.0607 19.2988
Pt 24.4314 10.8004 13.5286
Pt 15.033 10.097 22.8222
Pt 12.4205 13.5483 11.5434
Au 11.1659 17.7956 3.66958
Au 13.0724 26.0024 13.9972
Pt 25.1066 12.5975 17.6548
Au 5.82296 11.7862 20.821
Pt 10.8288 22.8839 14.1342
Au 12.3975 6.10954 23.2553
Pt 16.8114 11.7324 9.01727
Au 9.73869 24.7002 20.8384
Pt 22.1335 19.4747 8.8602
Au 7.05664 8.18832 14.2643
Pt 22.5277 13.7695 13.1967
Au 24.9841 7.09024 14.3396
Pt 13.4424 8.33451 18.5404
Au 12.6186 3.9792 16.8162
Pt 12.7186 18.0669 20.3311
Au 21.9678 10.2106 23.1492
Pt 6.08894 14.9135 13.6237
Au 23.3671 10.4291 20.4958
Pt 10.0737 18.1238 20.8401
Au 23.1088 8.87405 7.47134
Pt 5.69709 18.1319 20.1718
Pt 11.8359 15.0955 18.7847
Au 5.6717 13.2325 18.121
Au 16.1759 18.2502 26.4395
Pt 18.7214 14.2183 21.269
Au 18.1215 21.5692 5.68909
Pt 10.4562 14.1973 13.344
Au 11.0124 25.1875 15.6836
Pt 13.1464 16.9376 5.19907
Au 5.35594 10.2266 11.0441
Pt 16.7148 9.09067 15.3568
Au 16.4675 26.0799 17.4155
Pt 11.866 9.28235 13.3358
Au 16.8913 13.5522 26.5088
Pt 18.507 8.90264 10.0473
Au 15.7565 17.1158 3.4083
Pt 22.3232 16.7913 13.1192
Au 26.9413 17.5897 13.9224
Pt 17.8092 11.749 11.6494
Au 8.39368 23.2718 22.8654
Pt 21.2481 16.1727 8.61722
Au 20.9047 18.5627 23.7496
Pt 14.4603 21.4386 14.0102
Pt 19.432 11.3833 9.51161
Au 25.6138 21.3321 11.001
Au 22.4923 6.33514 9.28964
Pt 9.88418 12.8447 10.9103
Au 23.9958 8.48312 9.91005
Pt 10.9134 23.0668 11.3979
Au 23.6027 14.7129 8.51289
Pt 21.3115 10.1364 16.2978
Au 19.6711 13.6581 25.8159
Pt 18.2492 13.8438 8.58494
Au 5.93533 14.4266 21.4679
Pt 11.7734 18.4772 23.1771
Au 13.6215 15.4204 3.06666
Pt 9.22301 18.6846 8.45556
Au 3.48676 14.9616 9.5518
Pt 19.436 12.0255 23.0023
Au 10.6752 9.77867 10.5863
Pt 5.59933 12.5424 12.6544
Au 12.6215 15.4652 27.7267
Pt 8.68045 7.94363 16.4884
Au 22.1615 21.396 6.78784
Pt 20.2232 18.3978 19.4343
Pt 20.7512 12.4051 11.6914
Au 4.3467 10.8428 18.7762
Au 20.9891 9.07899 5.61754
Pt 10.8949 22.6331 22.143
Au 4.34035 12.5467 10.2658
Pt 17.8091 19.0797 16.3635
Au 3.69725 13.4006 19.7983
Pt 10.3286 12.3356 15.3661
Au 11.7904 12.9813 28.1994
Pt 16.0872 8.94964 17.9738
Au 18.0699 23.3561 18.648
Pt 21.9448 21.5273 16.2679
Au 13.3179 15.9045 25.1257
Pt 9.33466 17.4343 23.2361
Au 11.0483 9.49403 7.72572
Pt 22.856 21.2854 10.9234
Au 21.6235 19.8012 21.4274
Pt 16.2465 7.89096 10.7302
Au 27.3657 15.0074 14.6939
Pt 20.621 8.62156 8.42123
Au 24.4745 20.0137 20.829
Pt 20.7351 13.1339 18.9416
Au 15.3514 4.15185 16.841
Au 11.5222 25.0067 18.3945
Pt 18.6189 16.2888 9.55838
Au 15.1821 25.7335 12.2867
Pt 19.1151 21.4026 16.984
Au 3.80468 15.4941 17.7622
Pt 20.0108 9.33575 21.4713
Au 18.541 10.0636 4.77567
Pt 15.6942 21.9067 9.40425
Au 15.9366 20.3885 24.7918
Pt 19.7686 14.8092 6.71228
Au 27.0804 10.8603 17.009
Pt 10.9377 8.14451 17.8392
Au 12.3888 24.8816 21.0186
Pt 17.7462 6.7242 19.9229
Au 10.0497 12.0388 26.4154
Pt 12.2112 13.4656 25.5005
Au 15.0765 24.6686 21.8267
Au 18.118 15.9457 4.54151
Pt 10.9098 22.531 19.4913
Pt 13.0808 13.5743 7.72508
Pt 10.2904 13.0418 18.1438
Pt 19.8969 19.9597 7.31532
Pt 11.6811 16.8421 14.5444
Pt 18.3332 7.0926 14.6272
Pt 11.2547 7.68488 15.3061
Pt 14.4089 16.8333 7.76569
Pt 8.61788 15.3918 17.5376
Pt 19.4892 12.4287 14.1496
Pt 18.5964 16.8443 17.5657
Pt 13.0547 12.827 19.5041
Pt 17.2561 16.1277 7.22124
Au 19.6714 6.11669 9.24347
Au 26.5267 9.47353 14.6865
Pt 24.2375 16.845 17.6774
Au 17.6693 24.9083 11.2515
Pt 9.46851 16.199 7.65525
Au 15.5142 24.0826 14.481
Pt 18.94 19.0464 21.8076
Au 17.6853 23.9114 8.63652
Pt 11.438 16.035 21.6604
Au 11.8108 19.8982 25.8195
Pt 17.4683 13.5311 16.0413
Au 21.9902 12.9655 24.0549
Pt 18.4822 16.7004 23.2845
Au 7.17699 15.5457 6.56711
Pt 8.57858 8.91232 18.9986
Au 15.4713 22.2196 22.8791
Pt 22.885 8.55772 14.8658
Au 22.3399 23.0219 8.99724
Pt 15.5435 19.1406 14.9996
Au 23.9105 12.3045 22.3566
Pt 15.1112 13.8299 17.5997
Pt 8.52511 21.749 17.6295
Au 21.2109 5.3491 11.6095
Au 20.4537 16.4718 25.3466
Pt 16.3096 15.9338 18.992
Au 10.831 9.92936 24.9009
Pt 9.32877 21.0814 12.3503
Au 7.15127 16.7168 9.25703
Pt 8.03788 12.9731 16.639
Au 5.66543 13.9668 8.25159
Pt 11.7218 11.381 21.541
Au 14.4261 4.63674 14.375
Pt 17.1411 11.4276 14.3208
Au 6.61089 21.7428 13.373
Pt 15.9597 16.5136 16.4857
Au 4.42346 10.5265 16.193
Pt 13.2465 6.4695 16.6599
Au 17.9902 16.1047 26.2313
Pt 7.13016 11.0569 18.4128
Au 6.36449 22.1219 16.0313
Pt 12.6689 12.8545 16.737
Au 7.65991 12.811 6.78389
Pt 11.8049 16.1581 11.8963
Pt 8.32789 14.2467 9.11671
Au 5.04721 10.0785 13.6823
Au 5.73875 19.0745 9.36139
Pt 8.30128 17.8512 18.7139
Au 25.7291 13.5737 9.93104
Pt 6.78404 17.2767 14.9159
Au 17.0304 25.3697 20.0207
Pt 22.4896 15.5602 15.3723
Au 8.72144 23.5634 9.90719
Pt 16.7152 21.0768 18.1641
Au 24.6382 22.6099 13.2394
Pt 14.5842 20.4416 11.4642
Au 24.5044 14.9376 21.8178
Pt 13.5264 17.8785 10.9737
Au 13.7495 19.0661 3.77237
Pt 13.3671 19.1695 6.62291
Au 16.4101 5.26627 10.8194
Pt 19.9285 14.8208 16.5001
Au 22.5797 15.7169 23.7261
Pt 14.7065 15.4466 12.1633
Au 20.137 24.8402 12.8085
Pt 20.2897 15.611 19.3606
Pt 9.45897 10.5601 17.1352
Au 18.6074 12.9158 3.87182
Au 17.0812 4.69799 13.5575
Pt 13.949 15.1396 20.4862
Au 26.852 16.8099 16.839
Pt 8.04475 12.7488 13.8402
Au 24.2208 21.3002 18.2794
Pt 23.1771 19.1663 17.0058
Au 12.3965 8.80566 22.852
Pt 11.1789 20.4142 7.57047
Au 11.2751 23.4429 8.7765
Pt 6.13681 15.249 16.3938
Au 18.9648 7.39574 6.37461
Pt 24.8096 17.4299 12.2834
Au 20.6968 14.5678 4.29644
Pt 16.878 21.6114 15.4477
Au 20.2948 21.9552 22.114
Pt 14.9924 12.6236 12.7369
Au 16.2164 15.323 21.9931
Pt 11.9332 10.1856 16.0987
Au 21.4671 6.66508 6.89775
Pt 12.9231 14.4278 14.0098
Pt 21.2678 11.0098 7.50379
Au 7.13302 24.3303 20.5787
Au 25.8288 12.297 20.2542
Pt 17.4479 9.25955 12.7027
Au 9.19479 6.41721 14.215
Pt 22.2417 21.5568 13.663
Au 4.87591 16.6567 7.97547
Pt 21.4191 20.9256 18.7378
Au 15.3123 11.3964 25.372
Pt 9.81491 20.254 22.6218
Au 4.73983 20.253 17.2698
Pt 20.3518 21.2097 9.74245
Au 8.78799 24.2687 18.3202
Pt 13.183 18.9206 13.4637
Au 22.0122 6.03231 18.8354
Pt 21.507 12.9243 15.7943
Au 23.4152 6.35953 16.5756
Pt 15.4879 17.9644 20.4617
Au 8.29179 7.79375 21.37
Pt 17.9262 6.95842 17.3132
Au 3.50112 18.1941 18.6542
Pt 8.27912 12.2779 22.0044
Pt 15.7052 18.17 12.3993
Pt 11.0408 14.6966 9.47967
Pt 21.0344 13.409 8.85391
Pt 10.138 19.7352 16.7104
Pt 14.3964 21.0085 16.729
Pt 15.0097 11.7458 15.6667
Pt 11.0212 17.5359 18.1196
Pt 13.5693 7.26622 14.0974
Au 10.7081 25.2969 12.8734
Pt 19.9805 9.99156 12.0288
Au 17.8579 23.1083 21.4747
Pt 14.2613 10.9663 18.0478
Au 18.4072 18.7448 24.9598
Pt 17.6148 9.98995 22.277
Au 16.1139 14.2092 3.33883
Pt 10.9683 8.7377 20.4482
Au 19.9541 22.8146 7.46537
Pt 14.3159 12.5083 21.7719
Au 14.0079 18.6192 24.6925
Pt 13.5855 21.5562 7.87847
Au 20.1492 25.6551 15.4426
Pt 21.8205 11.1102 13.862
Au 11.7639 5.72618 18.8785
Pt 17.2631 13.7525 5.97129
Au 8.48213 23.6403 12.7153
Pt 10.4805 19.2297 14.0693
Pt 14.6829 19.2055 8.97398
Pt 12.7362 11.83 14.1669
Au 8.62115 17.4937 5.05845
Au 6.62746 15.4674 23.9214
Pt 23.9944 15.2344 11.2437
Au 15.8757 23.0537 6.78813
Pt 22.921 15.9755 19.8749
Au 22.4344 5.68934 14.2087
Pt 7.97648 13.4492 19.6216
Au 13.9907 9.02554 25.1783
Pt 15.7352 18.0377 5.86257
Au 9.06459 8.24599 12.2089
Pt 13.1836 23.5785 12.941
Au 25.2937 10.0258 18.7554
Pt 18.5725 11.8478 20.1981
Au 10.1247 14.763 26.956
Pt 13.5865 15.3569 9.76734
Au 16.322 11.4915 3.69821
Pt 15.8779 20.4128 6.89603
Au 17.2189 6.8672 8.37838
Pt 16.9068 11.5465 17.829
Au 17.782 25.8572 13.8247
Pt 7.45436 19.5063 16.3547
Pt 15.6448 22.8344 19.8794
Au 26.533 20.4483 13.481
Au 13.7578 12.602 3.35638
Pt 19.3624 11.9809 16.9955
Au 23.3507 17.7597 22.17
Pt 24.3355 20.6113 15.2124
Au 11.9645 7.34292 9.52882
Pt 12.5868 14.0493 22.8358
Au 6.23555 11.2327 8.51128
Pt 8.43841 15.1371 14.8385
Au 4.4382 20.5533 19.9389
Pt 17.9526 21.1833 8.39857
Au 9.57519 11.0722 6.02287
Pt 11.8221 20.371 20.9666
Au 22.8937 8.65212 18.0254
Pt 13.3275 15.4713 16.4141
Au 25.5615 8.67556 12.2173
Pt 20.4632 23.6339 17.2056
Au 3.28738 12.8819 16.8947
Pt 12.9352 11.008 11.635
Au 3.6702 14.9541 15.026
Pt 16.3913 14.1011 10.6663
Pt 14.3659 20.402 19.5295
Au 23.2169 10.8462 5.6739
Au 11.3497 6.78201 12.2544
Pt 15.6091 22.9681 11.9151
Au 22.7799 22.1655 20.6473
Pt 16.5097 18.4408 22.895
Au 22.7739 23.5538 18.287
Pt 13.376 22.6884 10.3761
Au 3.36203 12.332 14.0878
Pt 7.47559 16.8073 21.4819
Au 20.6166 11.1124 25.3564
Pt 14.914 13.7774 24.2229
Au 26.9658 11.1117 12.4801
Pt 17.9626 18.2806 13.8096
Au 18.0933 21.0343 23.3707
Pt 12.6388 14.2184 5.2132
Au 7.43505 20.9241 23.7578
Pt 15.9285 10.8681 20.2396
Au 20.4356 20.3148 4.78443
Pt 15.3799 14.3781 14.8372
Au 13.9483 16.8362 22.5869
Pt 16.6624 11.149 6.40334
Au 19.4632 9.08114 24.0507
Pt 10.4091 12.5577 23.605
Au 13.0033 23.8145 23.4336
Au 27.4461 13.7616 17.2121
Pt 24.064 19.7613 12.7732
Au 6.21739 8.66693 17.3438
Pt 18.0534 9.31969 19.6999
Au 18.8017 4.22766 11.3792
Pt 24.7554 15.3386 13.8636
Au 12.6885 25.2435 10.8306
Pt 22.868 18.5372 19.4417
Au 18.0937 4.59266 16.1916
Pt 12.1844 20.2532 18.1918
Au 13.3237 6.86299 20.827
Pt 15.7292 8.26 20.7452
Au 15.2853 24.7025 9.74669
Pt 21.5608 16.9182 17.4656
Pt 19.1975 12.1685 6.65752
Pt 22.7807 9.34587 12.2298
Pt 19.0206 19.7506 11.8382
Au 8.26385 10.9903 24.5882
Pt 8.8848 21.3333 14.9515
Au 13.5307 17.9414 27.205
Pt 10.8382 18.7868 11.4627
Au 7.13466 10.567 15.5854
Pt 20.1151 14.7098 23.4026
Au 20.8903 11.6718 4.60445
Pt 14.1865 8.9762 16.0363
Au 3.64178 14.5961 12.2874
Pt 13.8453 16.8614 18.4342
Pt 15.3981 6.50292 18.495
Pt 12.1392 20.8006 15.3257
Au 22.4711 23.7688 11.8234
Pt 13.3204 9.66994 9.40501
Au 9.95505 7.6024 23.5397
Pt 20.0576 7.78926 18.8286
Au 26.7571 15.3791 11.9674
Pt 24.4448 19.0755 10.1741
Au 14.3956 10.1493 4.99988
Pt 19.7119 17.4045 6.98987
Au 22.2012 8.03731 20.7049
Pt 13.0459 18.4192 16.317
Au 13.7021 8.21556 11.5449
Pt 10.7942 14.9008 16.1373
Au 14.5271 6.74027 9.07389
Pt 21.3938 15.0425 11.0165
Au 25.6731 14.8788 19.1186
Pt 9.51169 9.62881 14.6118
Au 16.4054 8.43256 5.99403
Pt 22.5263 17.3864 10.4998
Pt 19.0521 21.0214 19.8449
Pt 6.93325 20.1326 18.9599
Au 8.35824 13.7336 25.0396
Au 8.55316 23.9185 15.5496
Pt 10.6249 13.55 20.823
Au 8.14774 9.44457 7.50777
Pt 23.9662 12.8779 15.1813
Au 26.8491 18.7781 11.3463
Pt 22.7833 14.4135 17.6636
Au 11.0901 17.3543 26.0563
Pt 17.6646 14.2388 24.096
Au 10.2109 5.52695 16.6402
Pt 16.9492 19.4825 10.3879
Au 4.88673 17.0035 22.586
Pt 12.0385 15.8502 7.28691
Au 22.2572 16.0426 6.08923
Pt 5.93969 14.7548 10.827
Au 23.8187 11.8106 8.2199
Pt 14.3202 12.6089 9.96496
Au 16.9375 4.31809 18.9721
Pt 20.1911 17.2484 15.0051
Au 20.6738 7.40528 16.2096
Pt 15.4207 18.7577 17.7206
Au 7.02668 21.5818 10.721
Pt 18.7081 9.47408 17.1178
Au 9.03335 6.36345 18.9724
Au 6.11622 22.0163 21.5391
Pt 9.56264 16.6725 10.4107
Au 24.9617 10.9142 10.6598
Pt 19.3417 9.70668 14.5906
Au 14.0444 21.5353 5.141
Pt 7.8023 19.2443 13.5806
Au 3.80671 17.624 15.9343
Pt 4.60652 17.0825 13.4468
Au 10.5582 6.21155 21.2913
Pt 20.771 7.68541 13.4389
Au 10.6553 15.3384 24.2943
Pt 19.0101 14.1734 11.0873
Au 5.2173 19.637 14.6818
Au 19.106 25.7694 18.0802
Pt 17.4326 16.2471 12.1081
Au 13.6832 8.48162 7.04326
Au 4.37829 17.1279 10.7649
Pt 8.3052 14.746 11.9481
Au 14.9054 7.29492 23.2094
Pt 21.5215 19.3348 11.9701
Au 10.3236 13.5193 7.00479
