561
Atoms. Timestep: 20869
Pt 7.07987 9.17894 12.5324
Au 7.39065 6.55161 17.461
Pt 13.9943 23.2744 14.9003
Au 19.8076 12.9776 4.51677
Pt 15.0245 20.4507 19.4587
Pt 23.4277 15.3797 10.3281
Au 10.418 18.3967 6.07304
Pt 12.9866 9.21261 14.4429
Au 3.01409 15.4134 13.6003
Pt 12.3109 11.8109 15.5092
Au 7.38098 21.7788 9.41035
Pt 16.0808 24.015 21.6373
Au 4.49798 17.9028 9.89586
Pt 12.9945 23.7034 17.237
Pt 5.57331 16.0117 13.5625
Au 23.2283 6.7095 9.12478
Au 26.2087 14.2477 11.1498
Pt 9.92175 15.6579 18.5923
Au 4.43427 15.4241 11.2074
Pt 17.9988 19.372 23.8335
Au 13.6627 15.2026 27.5178
Pt 13.6601 8.0517 19.1688
Au 19.852 15.8801 26.2675
Pt 8.95433 18.5724 18.6018
Au 15.5347 6.49468 18.0689
Pt 19.3562 15.4108 21.6693
Au 18.9526 11.7872 22.987
Au 25.8129 11.4555 10.3254
Pt 19.9509 15.3221 14.4306
Au 6.78422 22.2436 12.1113
Pt 14.6872 21.6268 17.0551
Au 25.0197 17.9505 7.26031
Pt 11.9811 21.3267 10.882
Au 22.307 6.65148 15.9361
Au 9.87399 10.3419 22.6872
Pt 19.139 20.8592 22.03
Pt 18.4351 5.84938 13.7084
Pt 17.3848 9.3658 7.73798
Pt 24.6252 13.8705 17.9044
Pt 13.2147 13.2751 19.0282
Pt 18.8391 22.0658 13.2662
Pt 15.1812 16.7169 25.7878
Au 14.4366 11.9546 2.82513
Pt 25.2085 17.0067 11.99
Au 4.35093 15.352 21.0797
Pt 12.5577 10.7603 23.0987
Au 20.6658 19.9506 24.2525
Pt 9.88742 17.2284 20.7392
Au 7.65049 21.0895 22.6688
Pt 15.0123 16.8207 16.4014
Au 19.8772 25.451 23.0812
Pt 14.1954 22.1223 12.5637
Au 13.099 10.5018 26.0877
Pt 13.8223 18.1991 18.7145
Au 17.7051 26.1955 21.6197
Pt 13.7174 14.2477 16.5216
Pt 11.0596 12.8384 11.939
Pt 23.4957 12.6814 10.795
Au 23.1737 22.5051 9.28854
Au 13.0661 14.4911 3.14884
Pt 8.62009 13.3268 10.9674
Au 15.7084 8.22792 5.67753
Pt 11.9994 21.4607 20.9756
Au 22.2541 5.61827 11.3956
Pt 7.46126 16.4549 19.1806
Au 22.137 7.89812 13.2953
Pt 18.7526 16.9379 10.082
Au 22.4654 12.6809 4.17296
Pt 13.3924 18.445 24.7646
Au 5.78211 10.9765 20.8672
Pt 22.7545 17.2832 12.6203
Au 18.0156 25.6075 16.131
Pt 12.5082 16.9467 20.8425
Au 24.2644 9.22205 9.76209
Pt 4.86026 13.587 14.8763
Au 19.3549 17.5021 3.70046
Pt 16.502 10.7994 20.3946
Au 21.1951 21.1948 7.65768
Pt 20.7176 14.5991 19.5951
Pt 14.0242 9.8254 10.6405
Au 22.452 8.8087 21.1245
Au 7.94086 7.40608 10.3342
Pt 15.2141 17.1795 21.0134
Au 18.1428 8.26441 23.9839
Pt 17.1984 12.7974 14.122
Au 26.1284 18.3119 16.7962
Pt 11.4815 14.5307 20.6327
Au 18.2288 6.6995 21.6352
Pt 12.7404 19.929 13.2902
Au 6.17642 13.552 22.1817
Pt 19.9983 9.43892 7.61774
Au 24.2178 23.0792 17.5559
Pt 23.4563 11.5086 17.2203
Au 5.28532 20.2591 13.5531
Pt 25.086 18.8379 14.1351
Au 13.0919 6.5833 14.02
Pt 20.971 10.2453 13.8321
Au 16.0996 10.2273 26.0057
Pt 13.6707 19.2034 21.6601
Au 4.59012 15.5823 8.43353
Pt 17.0952 8.02338 13.9436
Au 21.6196 23.8719 21.7444
Au 25.1385 13.684 8.70957
Pt 6.56626 18.1291 12.0645
Au 8.39364 16.4032 5.18077
Pt 21.513 10.0818 18.5432
Au 17.5881 17.003 27.6272
Pt 11.875 9.21164 20.9531
Au 13.2512 25.9034 15.7783
Pt 14.3546 12.0149 21.6132
Au 19.6935 5.6318 16.3053
Pt 18.4494 19.4753 12.9845
Au 20.7764 10.3404 4.71133
Pt 17.1022 9.59989 11.5762
Au 10.0341 21.7557 24.1471
Pt 21.8332 17.0656 19.5125
Au 7.73721 9.23046 21.5411
Pt 20.3821 15.9212 17.0507
Au 11.1363 9.58559 5.46846
Au 19.422 15.583 5.48837
Pt 23.5876 18.6778 16.2351
Au 24.6939 9.11484 16.9668
Au 8.0409 12.1822 23.8986
Pt 18.495 19.0318 17.2763
Au 10.1396 14.2032 25.2688
Pt 18.7929 22.9799 15.8365
Au 18.5051 14.8284 2.94397
Pt 16.5976 13.1226 22.2692
Au 12.9984 7.55604 9.41789
Pt 9.59628 10.2607 19.766
Au 14.4678 23.252 19.4104
Au 4.34101 12.9505 19.7939
Pt 23.8691 11.3263 8.23426
Pt 19.8301 12.7229 13.5278
Pt 16.6063 10.5552 15.7415
Pt 11.7154 11.9831 6.638
Pt 14.4637 9.24216 21.6103
Pt 16.3961 15.5799 23.0492
Pt 13.8465 10.6838 19.4494
Pt 14.1373 17.8683 13.9928
Pt 16.4106 19.7504 21.5907
Pt 8.58433 9.01918 17.4783
Pt 22.9194 20.343 14.3591
Au 16.4722 10.2725 23.2092
Au 9.03212 24.1805 19.1347
Pt 18.6025 9.65985 18.9056
Au 16.7214 16.8406 3.06156
Pt 12.2117 14.2022 14.1535
Au 16.0556 14.9376 28.547
Pt 12.5653 14.2916 5.79236
Au 3.82437 12.7831 12.4062
Pt 6.43685 13.5667 12.6615
Au 12.947 18.8484 5.09651
Pt 20.3296 16.7245 7.75419
Au 25.3091 21.4898 13.2296
Pt 16.419 8.04344 20.1818
Au 18.2554 9.26379 4.90049
Pt 5.86357 11.1771 13.7484
Au 20.2378 7.80371 20.2176
Pt 16.3032 14.4106 12.0142
Au 10.1504 6.35195 17.5245
Pt 12.2252 21.473 15.6401
Au 17.269 20.1723 6.05426
Pt 17.5966 20.6388 15.2851
Pt 18.3197 14.4479 18.3472
Au 23.6292 5.64166 13.7309
Au 17.0248 5.65011 15.9426
Pt 23.2988 16.2127 17.2572
Au 6.36896 19.3481 8.27486
Pt 11.7063 17.044 13.0692
Au 17.5401 24.3779 23.9678
Pt 5.95577 15.696 16.1356
Au 8.26706 6.34587 12.8592
Pt 10.3761 15.7295 6.75992
Au 18.8792 10.4892 25.3736
Pt 22.8213 10.2684 11.8205
Au 21.528 14.725 24.3561
Pt 17.6258 18.3017 8.05403
Au 15.2082 6.70708 7.79112
Pt 19.9938 17.1817 23.6269
Au 26.3181 18.9045 9.7293
Pt 18.6801 11.4515 6.35222
Au 21.5643 23.4314 16.7586
Pt 21.5132 14.9597 12.2357
Au 14.3022 8.86161 24.3753
Pt 13.0862 11.3121 12.7577
Pt 22.6602 20.926 17.1407
Au 21.7486 17.1518 5.32233
Au 23.7367 22.9482 14.9194
Pt 7.59503 15.742 11.7547
Au 22.0869 24.4852 19.1152
Pt 6.78266 16.2841 21.7247
Au 15.7621 24.3291 11.8614
Pt 14.6096 16.1918 4.76759
Au 4.55568 10.5563 18.2814
Pt 25.1721 12.2658 12.873
Au 17.9799 26.5285 18.7597
Pt 14.3311 16.4832 11.7712
Au 22.5896 8.81327 7.55165
Pt 23.976 19.5001 11.8553
Au 11.2198 19.7452 25.7558
Pt 6.91447 20.154 18.7977
Au 11.5732 4.86914 15.7316
Pt 14.3742 20.742 10.384
Au 13.4848 24.7915 21.4589
Pt 7.87514 15.0417 14.4334
Au 3.85956 10.8683 15.4814
Pt 9.55136 21.2718 19.529
Pt 19.1243 17.7193 15.1108
Au 4.11121 13.043 9.62534
Au 11.5352 20.7351 6.82904
Pt 18.9517 11.3962 9.0855
Au 18.2327 6.51456 18.7564
Pt 22.0456 9.30208 16.1009
Au 5.0314 8.56113 14.2965
Pt 16.751 21.6266 11.597
Au 8.6756 24.3045 16.0103
Pt 10.616 19.6713 9.38191
Au 25.6781 16.41 18.9336
Pt 8.45668 11.5377 12.6587
Au 18.4449 21.3421 25.5468
Pt 15.8621 13.1606 19.4153
Au 15.9344 9.89112 3.568
Pt 23.4078 14.9431 19.9401
Au 24.2768 7.34862 11.6843
Pt 15.6931 18.1024 23.5395
Au 21.2281 15.1678 3.4727
Pt 13.4758 9.73089 16.9698
Au 11.5325 6.49116 20.2825
Pt 14.4768 21.8655 21.7937
Au 26.8769 19.343 12.2719
Au 6.91659 22.2347 14.8461
Pt 11.2755 17.2234 8.78234
Au 15.6128 5.47321 13.5496
Pt 21.4197 12.0908 15.6933
Au 26.1994 10.7974 15.1739
Pt 12.3218 20.5969 23.3831
Au 20.479 6.77781 8.2988
Pt 8.25288 12.0381 21.207
Au 15.8773 22.0925 25.917
Pt 9.67063 17.2642 10.9003
Au 19.3745 18.6538 26.2232
Pt 7.99334 19.7992 16.2029
Au 27.1845 13.0802 16.1989
Pt 17.6649 19.4669 10.4496
Au 12.0719 23.2884 23.1028
Pt 16.1095 10.9769 6.05338
Au 23.6714 15.3237 4.73378
Au 3.17514 15.252 16.3369
Pt 23.8486 17.9597 9.72989
Pt 6.90342 16.8857 9.56849
Pt 14.9766 15.082 7.17347
Pt 20.5153 14.9977 9.71158
Pt 13.7526 16.3489 9.15802
Pt 11.606 11.321 18.1301
Pt 10.7883 10.5138 13.5708
Pt 21.3682 11.7117 6.89027
Pt 11.1893 10.3867 10.8778
Pt 18.3766 9.38718 21.5583
Pt 9.55722 15.0979 9.34133
Pt 13.6841 16.3301 23.0952
Pt 15.1076 7.92364 15.6516
Au 24.5856 13.2336 15.3152
Au 26.3499 15.5751 16.4601
Pt 9.67123 13.0128 19.1942
Au 5.35727 10.9066 8.34938
Pt 8.18976 14.3318 17.135
Au 11.6233 16.554 4.27499
Pt 17.1064 15.3392 20.4794
Au 6.07361 11.5248 10.9045
Pt 5.71413 12.9535 17.3
Au 11.4759 8.80327 24.4472
Pt 14.7971 13.1721 5.10374
Au 20.3962 25.0034 14.821
Pt 15.5365 19.3993 12.3713
Au 5.1376 17.8556 20.2925
Pt 11.619 11.8583 20.8155
Au 11.2036 24.2738 14.9627
Pt 21.0005 13.3222 21.926
Au 20.569 9.40702 23.1837
Pt 15.9382 20.3684 8.37026
Au 19.9438 22.7734 23.7794
Pt 9.26571 11.6917 16.9102
Pt 7.66806 7.95184 15.1258
Au 10.622 6.43626 10.7743
Au 6.45127 8.70966 19.1695
Pt 14.312 14.6374 21.1442
Au 14.4878 20.7142 6.20087
Pt 20.0608 21.2057 17.5821
Au 5.71143 6.96805 12.2086
Pt 14.7956 11.9369 17.186
Au 2.58145 14.8624 19.0029
Pt 8.80806 14.7901 21.1505
Au 25.3385 20.9397 15.9079
Pt 9.88569 12.9905 14.5676
Au 7.10962 11.2167 6.2516
Pt 12.2021 8.2729 12.0519
Au 7.70878 18.9179 5.82742
Pt 15.4441 11.9068 11.748
Au 14.9735 17.6501 28.1789
Pt 9.94372 19.968 21.9415
Au 25.9896 16.2536 9.26376
Pt 10.4412 12.3327 9.2429
Au 23.6254 13.8444 22.5043
Pt 16.3031 16.0229 9.72399
Pt 19.8262 7.9724 14.9236
Au 19.6656 5.78578 10.882
Au 7.39908 9.03905 8.14272
Pt 11.8599 15.4504 10.8572
Au 18.2311 7.13185 6.54857
Pt 8.83386 17.4486 13.5634
Au 25.0959 12.5456 20.3848
Pt 12.4083 15.791 25.2067
Au 14.3337 5.05546 15.9945
Pt 13.1735 19.144 16.2828
Au 20.5717 23.8854 12.0975
Pt 17.3541 15.5524 14.4227
Au 13.1309 25.8415 18.8451
Pt 19.4004 7.97075 12.4013
Au 5.48173 20.2468 10.7951
Pt 8.77439 17.7177 8.08467
Au 17.6827 6.08691 8.88325
Pt 19.5619 13.654 7.5696
Au 10.3593 22.4615 8.98306
Pt 17.3567 17.379 5.5895
Au 26.6414 14.5758 13.8194
Pt 7.73859 18.8682 20.8954
Pt 24.4499 16.4074 14.7851
Au 21.9116 17.4534 25.3695
Au 3.94447 17.9837 12.6109
Pt 8.47659 10.3213 10.2705
Au 22.2759 18.7047 7.52888
Pt 18.0223 12.1346 11.6075
Au 20.0909 25.8179 20.2986
Pt 21.6477 10.7355 9.38931
Au 10.0676 17.107 25.4224
Pt 8.06921 20.0891 13.3307
Au 23.0401 11.2333 22.0482
Pt 20.7166 12.7336 10.9259
Au 25.4636 9.66491 12.4297
Pt 22.439 12.5957 13.2232
Au 13.2467 3.98696 13.6654
Pt 21.8976 16.026 21.95
Au 10.8328 25.4746 17.4593
Pt 9.53197 13.3219 6.96481
Au 25.8162 14.9706 21.2507
Pt 17.5748 16.547 17.0069
Au 12.5533 13.147 26.0718
Pt 11.451 22.2573 13.2459
Pt 20.0825 12.2201 18.2954
Au 8.8775 20.5344 7.56048
Au 20.9468 5.44396 13.7815
Pt 18.3743 10.3546 13.7921
Au 6.08296 6.02254 14.8298
Pt 17.9228 13.8799 9.68616
Au 12.4125 17.6534 27.1468
Pt 5.1407 15.3771 18.5115
Au 18.6739 14.4584 28.2359
Pt 7.74166 12.2907 8.61373
Au 24.1343 13.0877 6.24323
Pt 21.7131 19.8796 19.5315
Au 18.4038 21.5375 8.5467
Pt 22.1404 20.1451 10.0497
Au 20.6257 23.0633 9.49534
Pt 16.7277 18.1011 19.1738
Au 21.9058 21.1342 22.1403
Pt 12.6398 18.4665 10.8983
Au 15.871 7.27895 22.8006
Pt 22.0215 13.89 17.4467
Au 5.45525 20.5004 21.0655
Pt 6.95907 13.7869 19.5676
Pt 14.6823 9.58623 7.90711
Pt 18.8621 14.8411 12.0024
Pt 10.1954 13.1004 22.7096
Pt 15.8374 19.2873 17.0084
Pt 17.1849 21.8744 20.3524
Pt 21.4074 17.4491 10.273
Pt 16.8168 13.1127 7.37686
Pt 13.1777 19.162 8.26545
Au 7.75474 22.28 17.4814
Pt 10.2091 15.7562 15.3834
Au 24.3175 17.2096 21.2407
Pt 8.54792 10.2178 14.8083
Au 18.1452 24.7643 13.3407
Pt 10.2463 8.55804 9.27624
Au 22.7896 7.74968 18.4959
Pt 18.5557 12.8021 20.4531
Au 9.70455 22.959 21.6533
Pt 16.9191 14.7289 5.19704
Au 23.6955 10.5467 14.4787
Pt 10.4265 20.2101 17.2495
Au 26.043 11.4348 17.9672
Pt 14.8088 14.3639 24.7844
Au 10.4208 7.48074 14.5372
Pt 15.2847 18.3515 9.90226
Au 18.7777 23.6938 21.4155
Pt 8.34144 17.0778 16.4966
Pt 15.3383 10.046 13.6072
Pt 20.5169 18.5039 21.4327
Au 12.702 13.6122 23.243
Au 21.4002 11.8761 24.1819
Pt 22.3697 14.7536 14.9652
Au 8.91826 23.6636 13.2883
Pt 17.7128 8.1845 16.6266
Au 25.5649 15.4026 6.63276
Pt 23.8603 18.4137 18.7416
Au 24.1442 10.1038 19.5177
Pt 22.483 12.4358 19.6665
Au 13.3018 22.063 8.29749
Pt 24.0846 14.7061 12.8083
Au 27.1481 17.2129 14.1751
Pt 18.7828 8.40912 9.80818
Au 23.1849 22.1658 19.8517
Pt 9.35188 21.612 11.44
Au 15.4716 26.2326 20.1325
Pt 6.41505 10.3117 16.3349
Au 13.4852 23.6858 10.4198
Pt 17.3394 21.5374 17.827
Au 22.7492 22.062 11.962
Pt 21.6729 14.3543 6.16834
Pt 11.6495 23.634 19.6606
Au 15.5122 18.8689 4.37132
Au 13.1528 24.8099 12.946
Pt 17.7405 15.6938 7.62322
Au 5.58065 13.3762 7.18055
Pt 21.1061 18.5002 17.3563
Au 13.6902 10.3438 5.21001
Pt 15.2005 17.8945 7.0529
Au 13.3204 5.68942 11.4502
Pt 10.8172 9.56874 16.1228
Au 2.32415 13.0217 14.7104
Pt 7.64099 15.1086 7.58061
Au 13.9887 19.9715 26.8618
Pt 12.8332 16.7653 6.71647
Au 6.0892 17.0575 6.78263
Pt 12.596 16.4924 15.5716
Au 27.0035 13.9488 18.8852
Pt 7.35657 12.6332 15.2453
Au 10.6046 18.9146 14.9285
Pt 20.2125 7.97693 17.5308
Au 7.52351 13.7616 5.21684
Pt 19.9249 10.3068 11.3998
Pt 20.297 20.098 15.1665
Au 15.6585 25.4424 14.4809
Au 17.0786 6.46169 11.4717
Pt 15.8735 9.44299 18.0598
Au 8.92168 7.46731 19.7706
Pt 20.4162 22.1459 20.0154
Au 11.9735 12.111 3.96339
Pt 16.3727 14.0698 16.4777
Au 4.099 19.8401 18.7164
Pt 17.9522 17.6508 21.7437
Au 10.0816 7.68409 22.2829
Pt 17.7216 16.9361 24.8565
Au 24.6217 7.99066 14.5132
Pt 12.1631 14.3018 8.40214
Au 22.7093 18.5636 23.0166
Pt 14.6663 12.5394 14.5228
Au 18.2425 23.614 10.6928
Pt 9.5735 8.64471 12.1548
Au 7.25156 22.4792 20.3562
Pt 11.1396 17.6819 17.3768
Au 9.52556 10.4335 7.43147
Pt 13.0057 12.2093 9.98871
Au 24.3163 20.3469 8.26407
Pt 19.2823 23.7535 18.379
Au 20.3958 25.9427 17.4577
Au 23.837 16.2068 23.7952
Pt 19.9384 17.2972 12.5076
Au 19.7172 13.0855 26.0099
Pt 16.2097 23.6307 16.5465
Au 19.7076 18.9385 6.18008
Pt 15.274 15.6518 18.6471
Au 5.88123 18.0264 17.5339
Pt 12.6195 15.7928 18.412
Au 21.5164 8.17246 10.488
Pt 14.5739 11.8417 24.3263
Au 5.63769 8.86001 10.1952
Pt 19.2119 16.9972 19.2992
Au 15.9164 22.8955 9.31454
Pt 16.9124 24.1705 19.0801
Pt 17.4778 11.8373 17.858
Pt 8.14529 19.3886 10.3844
Pt 11.3879 18.1636 23.1596
Au 5.3197 20.4788 16.3265
Pt 14.7572 15.2193 14.1662
Au 3.03335 12.7216 17.3329
Pt 6.45962 14.2241 9.83474
Au 8.71651 19.4554 24.6056
Pt 16.6216 18.2027 14.6868
Au 20.7283 7.84386 5.70792
Pt 12.1897 10.1105 8.36423
Au 3.27519 17.3294 18.1601
Pt 17.0798 14.7038 26.1229
Pt 6.52874 18.162 14.7867
Pt 19.0553 13.3764 16.0418
Au 16.5243 19.2493 26.1975
Pt 14.8653 7.83649 12.2715
Au 14.7426 23.5937 23.9443
Pt 12.5704 21.1865 18.466
Au 25.3062 21.349 10.5467
Pt 11.4314 19.1439 19.7417
Au 23.1279 15.9971 7.70245
Pt 15.9835 8.21104 9.74555
Au 17.0524 17.1349 12.191
Pt 9.56649 21.6313 15.0274
Au 5.20898 7.98624 16.8595
Pt 15.0416 13.762 9.55877
Au 21.2158 22.4297 14.2647
Pt 14.9532 20.564 14.684
Au 6.29762 18.6454 23.0784
Pt 16.4458 22.7408 14.0474
Au 10.962 24.0254 11.3198
Pt 19.8949 19.2442 9.00203
Pt 13.6574 13.8989 11.9877
Pt 16.2475 11.2511 9.32834
Au 10.1772 14.2382 4.33873
Au 12.9862 22.0614 25.4651
Pt 17.0916 12.5107 24.8152
Au 12.9421 5.35808 18.3395
Pt 19.7298 21.1178 11.0192
Au 23.371 10.5061 5.60953
Pt 10.7915 15.673 22.9637
Au 15.4795 26.0139 17.39
Pt 8.75889 17.432 23.0218
Au 4.1405 9.96277 12.1607
Pt 12.5841 7.30821 16.5713
Au 9.39399 11.6362 4.83412
Pt 19.3818 10.4151 16.3231
Au 8.41459 23.9224 10.5625
Pt 21.706 17.5033 14.9222
Au 12.8658 7.24523 22.6238
Pt 18.8472 19.7652 19.7045
Au 15.7357 14.3641 2.72834
Pt 9.95848 15.0513 12.69
Au 8.00217 14.961 23.8246
Pt 11.115 13.7957 16.9852
Au 17.221 12.2681 3.87576
Pt 22.2839 13.4541 8.61461
Au 5.24387 22.2065 18.5868
Au 24.1166 19.8913 21.0028
Pt 10.4904 22.7862 17.3543
Au 27.6527 16.7472 11.4783
Pt 11.1861 8.61276 18.4949
Au 10.6727 11.4877 25.0119
Pt 14.148 12.2688 7.52479
Au 14.4708 6.0923 20.714
Pt 21.223 19.5963 12.5571
Au 15.09 12.7152 27.0231
Pt 10.4005 19.3959 12.2303
Au 10.8505 5.16129 13.1012
Pt 17.0052 21.936 23.2054
Au 3.95267 17.7517 15.3953
Au 20.5093 10.8314 20.8437
Pt 18.7582 14.5001 23.9515
Au 8.78757 5.3912 15.3373
Au 12.953 7.97816 6.66568
Pt 7.34978 11.2678 18.6682
Au 25.1435 20.6534 18.5296
Pt 14.946 20.5289 24.0654
Au 17.6475 12.0978 27.4505
