561
Atoms. Timestep: 20796
Pt 6.95787 9.27602 16.7717
Au 5.13513 21.326 13.1159
Pt 9.33313 8.24715 20.662
Au 2.79181 12.5282 15.9443
Pt 10.4019 14.3774 11.4726
Pt 10.151 11.8654 8.58381
Au 26.0686 20.1202 14.3774
Pt 7.56907 14.6861 11.0551
Au 4.79747 16.6729 21.1976
Pt 16.6565 20.0269 17.3715
Au 14.2983 15.1954 26.1542
Pt 21.167 17.2612 21.464
Au 22.3929 13.5418 4.1732
Pt 23.9713 18.3465 18.1453
Pt 9.71182 14.9665 17.9755
Au 23.6163 16.1321 4.18215
Au 24.7284 22.0619 20.526
Pt 13.0051 20.8788 19.4783
Au 22.6948 8.50773 17.1526
Pt 6.22713 11.582 18.8814
Au 6.27834 10.7719 23.1122
Pt 22.1627 15.0574 22.2265
Au 5.86089 6.62961 16.7741
Pt 16.9173 6.60979 11.8717
Au 17.9273 14.4784 25.6665
Pt 17.2121 20.775 22.9749
Au 8.96536 23.6601 11.6084
Au 22.8529 10.2031 9.66761
Pt 16.0479 19.3246 9.55464
Au 15.8027 10.3223 24.5742
Pt 21.1678 19.6236 9.81564
Au 17.5143 6.42541 7.84299
Pt 6.02323 16.5028 18.548
Au 22.9127 11.8477 6.21912
Au 15.8199 23.5804 7.08738
Pt 18.5225 13.3797 8.13587
Pt 14.0891 22.9042 20.6889
Pt 15.3426 12.4959 5.1731
Pt 13.6283 11.3575 23.3933
Pt 19.9827 13.1329 10.5838
Pt 11.7439 10.1423 12.8603
Pt 20.1591 22.3881 13.3732
Au 7.93744 5.14477 17.8673
Pt 11.8697 5.85725 14.3713
Au 9.53896 6.56488 10.5239
Pt 15.9539 11.0232 19.4969
Au 24.6122 23.6809 18.2981
Pt 18.1052 23.5733 12.0603
Au 6.02844 21.5417 20.2952
Pt 18.0232 12.6532 20.5173
Au 5.10326 13.8154 10.1613
Pt 14.9882 7.41707 20.9631
Au 6.64978 15.1955 22.5232
Pt 8.51189 13.6516 15.2603
Au 21.9642 21.9203 8.62642
Pt 17.7005 13.8471 22.9414
Pt 17.5664 22.9916 9.41553
Pt 14.0575 19.9702 11.146
Au 25.323 9.36207 16.4005
Au 7.64696 20.2039 22.4213
Pt 12.0749 7.30381 16.6931
Au 21.5598 9.73184 7.19594
Pt 24.3518 13.9299 12.4555
Au 15.4833 13.2336 24.5871
Pt 10.1452 11.478 11.2037
Au 22.7336 12.7027 23.4983
Pt 17.3778 12.9336 11.869
Au 17.1033 19.3521 25.6829
Pt 10.9431 14.2444 20.5034
Au 19.5891 4.71671 16.8871
Pt 17.6658 11.5117 9.61987
Au 3.86747 17.814 17.0983
Pt 14.0954 9.08592 16.7156
Au 16.4011 4.8466 9.98849
Pt 11.9863 7.27611 20.2596
Au 10.0685 6.59201 22.5709
Pt 19.0935 12.5509 16.1392
Au 13.6603 26.7725 13.1767
Pt 20.1579 12.7196 18.8194
Pt 21.8283 14.484 12.7357
Au 12.7704 16.2964 4.12951
Au 15.2878 22.8283 23.1423
Pt 15.7688 12.32 22.0013
Au 18.7475 19.9454 5.38768
Pt 10.5653 8.31223 14.5822
Au 14.3961 10.7752 14.0586
Pt 10.0279 7.40468 18.2342
Au 20.3957 10.9645 4.80212
Pt 7.77073 23.1935 16.2772
Au 8.20523 16.1215 7.2648
Pt 14.1023 6.81287 18.458
Au 21.6295 22.2157 23.5654
Pt 10.5975 21.5351 10.5022
Au 4.50741 19.6802 15.1553
Pt 12.4137 17.3317 11.8488
Au 20.3371 4.5811 14.133
Pt 19.5059 6.68375 12.6881
Au 14.465 17.8325 25.447
Pt 21.9526 12.7209 20.8575
Au 9.92354 24.4777 19.7649
Pt 10.8462 14.9167 15.6667
Au 18.4167 26.2243 13.0303
Au 18.2808 15.8681 2.77125
Pt 19.6312 12.998 13.2578
Au 20.0458 17.9665 3.84517
Pt 20.8289 17.6741 24.0338
Au 4.47971 11.0432 20.9106
Pt 4.50956 13.5581 17.7641
Au 15.1909 26.2418 18.7461
Pt 7.6804 8.63297 14.0573
Au 12.916 6.54118 22.8304
Pt 9.55844 9.59195 16.5325
Au 17.1993 11.3368 14.1582
Pt 13.4968 17.9615 9.21379
Au 9.45409 18.3927 24.1589
Pt 8.58397 18.1554 14.6422
Au 16.9531 22.0103 25.2612
Pt 9.30844 10.7867 14.1931
Au 26.215 14.2995 19.0982
Au 19.9627 7.72755 8.06176
Pt 16.9119 24.0763 19.0143
Au 25.4797 9.84305 13.7202
Au 3.37692 15.8185 18.9912
Pt 11.1291 18.8657 10.0003
Au 20.1184 15.9752 26.2853
Pt 14.4257 23.8486 17.9178
Au 20.7781 25.8333 19.9351
Pt 19.23 21.551 15.8846
Au 26.2062 16.0155 11.6025
Pt 8.77478 12.7647 19.3274
Au 9.3624 24.5983 14.2771
Au 14.7841 20.4177 24.4293
Pt 16.4328 8.00429 15.8935
Pt 21.5993 16.8953 14.1335
Pt 16.6583 5.8806 14.2597
Pt 10.463 12.3684 16.8092
Pt 16.2001 13.9535 9.67921
Pt 13.2582 9.05734 22.1753
Pt 12.2029 12.4353 6.97499
Pt 19.3113 15.3083 5.15285
Pt 11.9574 10.4937 15.516
Pt 15.7011 21.6266 19.1195
Pt 6.03309 17.5341 14.3189
Au 8.05082 8.63155 23.0508
Au 11.528 23.4039 21.6827
Pt 11.6304 9.5821 18.087
Au 16.813 5.21535 16.9229
Pt 11.8128 7.32473 12.1489
Au 2.82017 9.81324 16.3173
Pt 8.10228 15.2366 20.0657
Au 15.8185 3.74197 12.5688
Pt 24.1766 17.2454 15.7107
Au 19.4512 6.68553 20.277
Pt 6.90677 12.4734 21.2292
Au 16.9765 13.3948 2.75241
Pt 20.9782 21.321 17.808
Au 24.2602 16.9428 6.79244
Pt 11.597 16.1078 9.72949
Au 15.3092 17.1419 3.56184
Pt 14.5569 18.9367 18.6382
Au 23.1854 25.1859 16.1313
Pt 12.7469 20.7777 9.05643
Au 12.047 19.2145 24.5756
Pt 20.3562 15.2058 8.10301
Pt 15.5163 23.7206 11.1804
Au 9.94809 13.42 25.0679
Au 9.92731 24.6509 17.0263
Pt 24.3022 12.1766 14.31
Au 13.7918 21.6562 6.56233
Pt 19.0468 10.837 11.8498
Au 14.2068 14.1099 3.27667
Pt 11.9421 23.1616 18.6485
Au 17.4242 7.04015 22.1102
Pt 5.86363 12.901 12.5906
Au 12.9555 13.0301 15.4007
Pt 10.3621 17.5465 7.83441
Au 17.4456 14.1996 14.4319
Pt 7.37165 17.13 12.0303
Au 11.1744 25.4418 12.2736
Pt 15.3866 10.1956 9.13088
Au 7.65998 12.1742 9.96427
Pt 15.5418 17.5461 20.7682
Au 11.2565 9.74639 7.29674
Pt 11.0955 14.8046 23.0818
Au 11.5603 16.3591 25.2889
Pt 24.1247 19.989 16.0562
Pt 5.3359 15.7022 16.1188
Au 7.91745 11.3446 7.28532
Au 15.6344 8.18344 6.92324
Pt 13.8626 9.50181 11.4831
Au 5.25583 8.99051 12.5434
Pt 18.0345 12.9886 5.50984
Au 17.5608 17.0109 13.9732
Pt 14.7553 21.7884 12.8913
Au 13.2373 9.05529 24.8741
Pt 18.9691 18.8064 22.3565
Au 13.584 11.6497 17.7533
Pt 7.45012 10.4935 11.9527
Au 14.852 16.2198 13.7941
Pt 17.2864 15.2263 19.7112
Au 19.3689 22.2672 7.49095
Pt 19.7504 23.3737 19.8696
Au 6.81455 13.9272 8.01184
Pt 10.7071 21.2284 20.4736
Au 6.87484 17.7381 23.4781
Pt 9.13648 16.3557 22.1993
Au 19.8514 18.7191 26.3399
Pt 18.5858 24.1 14.7994
Pt 13.1591 15.9828 20.7165
Au 12.8874 7.63112 6.5554
Au 12.7846 21.054 22.5087
Pt 8.61915 19.6581 10.5251
Au 18.1904 9.01344 5.73777
Pt 23.1138 19.3562 20.4314
Au 12.9573 25.2482 20.1712
Pt 21.4007 19.7804 22.4557
Au 2.72995 15.193 16.403
Pt 19.6362 15.1892 17.9962
Au 21.9545 5.93845 15.7563
Pt 13.9681 14.9304 11.0965
Au 13.4318 23.8186 8.44884
Pt 20.9718 10.7836 16.771
Au 20.6916 24.2538 22.1894
Pt 17.4405 19.6676 20.3292
Au 7.299 23.6336 18.9054
Pt 11.9615 19.4893 7.04464
Au 22.6462 23.7943 13.634
Pt 16.1986 8.52355 18.491
Au 21.1808 6.44376 18.2486
Pt 6.84824 21.1762 17.7144
Au 11.43 11.1101 25.1728
Au 10.1639 20.9956 23.1575
Pt 14.1669 25.5305 15.5608
Au 13.7557 4.27646 10.8691
Pt 10.6769 19.6519 14.7531
Au 4.73836 13.2276 22.5414
Pt 21.9042 16.218 16.7989
Au 11.2004 22.4022 7.63238
Pt 9.17291 21.0628 12.8614
Au 16.0221 19.5669 4.9688
Pt 11.1668 12.0146 22.4827
Au 9.09907 13.7193 6.31629
Pt 17.8359 19.4334 15.1212
Au 6.97875 21.7243 11.0677
Pt 21.8086 18.9255 16.5119
Au 22.1498 19.9541 25.0381
Pt 9.40461 22.1752 18.2504
Au 16.8607 21.1571 7.13036
Au 4.86699 15.9757 11.9584
Pt 13.9087 18.3261 22.8124
Pt 8.43591 12.9017 12.7139
Pt 14.2294 6.90437 11.0306
Pt 8.40069 7.16675 16.0499
Pt 9.36465 14.3423 9.03994
Pt 13.8735 10.3205 6.84794
Pt 23.4659 21.144 18.3132
Pt 17.8423 9.20014 8.37678
Pt 23.7516 13.055 18.9186
Pt 17.3863 13.2159 18.0378
Pt 14.011 21.3373 17.1456
Pt 18.1192 8.71821 13.5953
Pt 15.5268 15.036 21.7154
Au 15.1035 3.68646 15.2119
Au 26.2428 17.189 19.1165
Pt 22.7196 13.2111 10.4853
Au 8.51484 22.5661 21.1705
Pt 11.4521 21.0247 17.0546
Au 3.18001 13.3775 20.2567
Pt 15.7936 9.68412 21.8656
Au 13.4337 18.8593 4.86789
Pt 19.4999 17.6823 9.11965
Au 16.2711 19.2705 12.9104
Pt 8.8046 10.1538 18.9171
Au 24.5567 15.6083 23.4221
Pt 16.4502 15.0533 4.71176
Au 10.4167 7.40571 8.04585
Pt 20.2168 10.1832 9.63446
Au 24.9462 17.8504 9.39912
Pt 13.0412 22.6388 10.9831
Au 20.8488 26.1074 17.2301
Pt 14.3689 6.25148 15.885
Au 10.1874 3.69839 14.2072
Pt 13.4871 11.4656 20.6998
Pt 20.0649 12.6471 22.6082
Au 23.8269 20.4708 10.3823
Au 7.21714 7.36687 11.5447
Pt 5.77186 13.2309 15.3846
Au 5.28135 22.2811 15.7673
Pt 6.75115 15.076 13.7584
Au 14.5624 5.96712 8.30532
Pt 21.3603 12.3227 8.454
Au 5.94708 19.0249 10.367
Pt 7.37645 17.7606 20.8741
Au 20.3255 10.5011 24.1606
Pt 18.6495 8.40042 10.8024
Au 16.1552 10.9204 16.6519
Pt 11.5481 17.3158 22.6776
Au 14.9752 13.4174 13.3775
Pt 10.5284 16.7377 19.9441
Au 24.5055 13.8929 21.3588
Pt 17.9183 15.9432 7.29057
Au 7.13482 13.1658 24.2086
Pt 17.9403 8.97968 20.331
Au 12.0871 6.02262 9.5479
Pt 9.86752 18.8916 21.4475
Pt 22.1204 17.3171 8.44475
Au 17.6536 10.9701 3.88903
Au 9.40748 5.50547 20.0653
Pt 23.7761 15.6692 10.468
Au 20.7601 19.9359 7.1773
Pt 7.86914 11.7202 16.7878
Au 22.4658 22.861 11.0957
Pt 19.9375 17.5349 6.52008
Au 14.501 4.22159 17.941
Pt 14.4793 12.5773 8.20621
Au 13.3512 15.903 16.0319
Pt 11.2552 11.9948 19.307
Au 7.20032 23.0069 13.6191
Pt 12.5212 17.1319 18.3167
Au 26.6373 12.3325 12.9089
Pt 20.3682 17.9628 11.9332
Au 15.0629 11.5261 2.73434
Pt 5.07088 11.0829 16.6003
Au 11.4148 13.862 4.66115
Pt 16.1241 15.8751 24.1626
Au 7.81783 4.60631 15.173
Pt 9.00134 19.8178 16.9037
Pt 17.2992 21.8585 13.9451
Au 24.3566 12.3838 8.48161
Au 25.9169 11.5221 18.331
Pt 7.10725 14.1404 17.6979
Au 22.0063 21.9283 20.6785
Pt 21.7911 12.532 14.7484
Au 25.9616 13.4813 10.429
Pt 23.593 11.3001 16.802
Au 19.4412 17.151 15.9501
Pt 19.344 15.5496 12.5907
Au 11.5832 4.7234 21.3629
Pt 12.6879 10.9971 9.48626
Au 17.9125 3.65015 14.8674
Pt 9.34099 15.674 13.4662
Au 20.3191 19.3022 14.3229
Pt 10.4306 17.4126 16.7073
Au 3.7963 14.2369 13.8854
Pt 13.7357 14.5064 5.93777
Au 21.4035 7.58202 10.3687
Pt 17.4219 18.5393 7.40017
Au 24.1488 21.4942 13.037
Pt 11.3222 14.8887 7.33091
Pt 9.0675 16.8492 10.0889
Au 8.86392 11.0691 24.1637
Au 22.427 17.5385 26.0993
Pt 11.2638 8.98347 10.1686
Au 23.3781 17.9691 23.289
Pt 19.8833 22.0329 10.6303
Au 22.3167 18.3215 5.4369
Pt 8.01033 16.1503 16.1466
Au 5.47938 11.6086 8.51091
Pt 16.1628 24.5276 13.6775
Au 23.0998 24.3537 20.7452
Pt 13.6189 15.8001 23.5596
Au 24.5713 11.3018 11.4654
Pt 21.8364 11.4683 12.2162
Au 10.1929 11.4416 5.52924
Pt 12.1809 23.5329 15.8838
Au 16.6922 5.88219 19.5899
Pt 8.96823 13.5532 22.2603
Au 11.0574 4.68335 11.8417
Pt 16.8712 22.5851 16.6682
Au 7.6211 18.5082 8.29695
Pt 13.7026 18.796 13.7082
Pt 10.7865 12.8229 13.8874
Pt 11.1784 22.8222 13.0032
Pt 16.4012 18.3513 23.1812
Pt 19.261 11.0709 7.1845
Pt 13.8279 9.2424 19.4694
Pt 18.5884 9.41629 16.2357
Pt 13.928 15.3171 8.48118
Pt 12.6199 12.48 11.9935
Au 18.3253 26.3447 18.6061
Pt 19.7306 14.72 20.8512
Au 15.3145 7.69518 23.7294
Pt 14.2001 5.79455 13.2759
Au 12.9501 3.40801 13.421
Pt 18.8932 6.66003 15.2945
Au 8.8083 9.48218 9.28296
Pt 13.4734 8.4135 8.93055
Au 24.1243 22.7006 15.7505
Pt 8.34208 20.1555 19.6959
Au 23.8945 20.7044 22.748
Pt 19.8627 15.2458 23.5571
Au 9.61622 20.2643 8.00584
Pt 16.1345 16.649 9.08609
Au 15.558 25.0164 21.2503
Pt 16.1872 7.7918 9.73194
Au 16.1451 27.0999 14.4217
Pt 22.019 21.2272 14.9644
Pt 12.1282 13.5077 9.57166
Pt 16.5938 11.1153 6.93064
Au 15.3679 9.71818 4.70391
Au 22.214 10.2768 22.1891
Pt 13.1812 8.25909 14.3099
Au 23.4808 8.81226 12.0703
Pt 21.8484 15.6808 5.96133
Au 20.5558 24.7263 11.8973
Pt 20.1767 8.91953 18.4897
Au 20.3864 24.1834 9.19034
Pt 20.0311 10.6756 20.598
Au 17.2753 15.648 16.7127
Pt 19.0983 17.2912 19.8719
Au 14.8329 13.5433 19.4786
Pt 20.2896 14.7419 15.1688
Au 15.3062 13.7229 16.4358
Pt 21.5146 17.6925 18.8805
Au 24.3965 11.2338 20.8498
Pt 11.7919 20.1738 12.3636
Au 15.9554 26.3987 11.6912
Pt 13.2836 13.6686 21.9935
Au 4.89997 8.61846 15.1663
Pt 11.2978 9.85114 20.7103
Pt 22.8592 14.6422 8.20063
Au 3.99734 11.1878 13.8975
Au 4.39336 18.7048 12.5149
Pt 11.5267 17.2292 14.3366
Au 3.44622 16.9372 14.4113
Pt 20.8689 8.26571 15.1587
Au 3.48812 18.5436 19.6803
Pt 21.9375 13.5364 17.1207
Au 12.4135 14.9315 13.2984
Pt 14.9097 12.0593 10.9403
Au 3.17062 11.2953 18.5382
Pt 15.5018 8.25548 13.3602
Au 25.3841 18.7917 12.009
Pt 16.9832 17.6914 18.4753
Au 23.8743 7.6899 14.7073
Pt 21.9422 15.0523 19.4506
Au 18.0611 11.8328 24.9101
Pt 9.88193 18.2123 12.3651
Au 10.7873 9.12962 23.3291
Pt 17.8775 16.4116 22.0384
Au 22.0435 8.27567 20.2713
Pt 6.56644 18.5761 16.6439
Pt 22.2195 10.7555 19.0768
Au 4.64817 11.2055 11.0638
Au 26.2664 15.9199 21.4101
Pt 23.7466 16.6736 20.5928
Au 19.6859 13.2506 3.34557
Pt 10.2154 5.39131 16.3613
Au 22.356 15.1639 24.9042
Pt 18.3544 10.8006 18.409
Au 19.2433 19.1522 17.6476
Pt 13.4342 24.1301 13.2655
Au 15.5196 17.7779 16.0342
Pt 5.61605 14.3169 20.0158
Au 14.913 15.9766 18.3764
Pt 18.4109 21.5704 18.7216
Au 19.9681 8.50584 22.2525
Pt 14.817 23.0295 15.2759
Au 15.8068 25.3458 9.0837
Pt 12.6819 13.5383 24.7006
Au 26.1652 14.6199 14.2989
Pt 12.7499 21.3107 14.6056
Au 18.1826 24.798 7.66222
Pt 18.077 10.8168 22.4094
Au 24.3476 14.2148 6.0581
Pt 9.49003 8.85974 12.0735
Au 26.5939 11.673 15.6107
Au 23.1975 26.022 18.6721
Pt 18.8844 20.1847 12.2543
Au 20.4775 13.1861 25.2499
Pt 7.07458 19.5369 12.7821
Au 18.2773 25.6008 10.298
Pt 22.8342 18.0138 11.1729
Au 17.8042 17.8471 11.1416
Pt 9.84495 22.127 15.281
Au 18.2689 25.2135 21.2024
Pt 7.36596 20.6921 15.0544
Au 8.64513 15.71 24.661
Pt 8.44297 17.6239 18.4612
Au 12.9229 11.5155 4.50099
Pt 20.6169 13.2914 6.18882
Pt 18.5587 20.2373 9.24375
Pt 12.7737 17.0152 6.77132
Pt 7.46163 7.66553 18.7627
Au 18.3178 23.3955 23.4062
Pt 19.0987 24.0108 17.4177
Au 10.3195 16.3988 5.37598
Pt 24.1214 15.6701 18.0482
Au 11.0263 24.1489 9.82035
Pt 6.65808 10.9866 14.4175
Au 23.4103 19.5477 7.82051
Pt 15.0107 17.4822 11.3617
Au 16.7398 16.7539 26.6483
Pt 12.3669 14.2816 18.1197
Pt 12.6066 18.6597 20.6408
Pt 24.0069 16.4951 13.0873
Au 8.69648 22.5726 9.08223
Pt 18.4703 15.3243 10.0275
Au 20.8499 25.7746 14.4434
Pt 22.7247 10.05 14.4948
Au 26.4467 18.7051 16.7541
Pt 5.97779 19.0562 19.1337
Au 25.4516 18.5361 21.6164
Pt 16.5942 15.4189 11.8879
Au 11.8453 5.07423 18.5935
Pt 19.9415 10.6313 14.3405
Au 4.8517 9.00935 18.4402
Pt 16.5196 9.98234 11.6623
Au 6.29071 6.38935 13.9388
Pt 8.95512 10.8553 21.4915
Au 19.4536 20.7033 24.5162
Pt 16.1185 14.1626 7.10827
Au 25.5214 15.2135 8.46239
Pt 14.6827 19.2903 7.32478
Pt 23.3189 14.752 15.0184
Pt 25.0053 13.5693 16.6084
Au 14.0616 5.00635 20.5454
Au 19.0857 5.85743 10.0215
Pt 20.8589 8.98278 12.5148
Au 25.8385 19.916 19.3267
Pt 16.7957 21.2906 11.1989
Au 11.6053 25.9984 14.9259
Pt 21.1217 23.4819 15.8564
Au 17.9737 8.81092 24.1214
Pt 17.6607 17.4339 4.93458
Au 18.3905 4.28618 12.1921
Pt 9.32539 6.40835 13.5375
Au 13.9103 11.5785 26.11
Pt 18.3817 7.18739 17.8417
Au 5.19773 19.3107 21.7256
Pt 20.3332 19.812 20.0033
Au 24.4638 9.28983 19.0245
Pt 10.7625 19.1646 18.7582
Au 6.21393 9.38584 9.85346
Pt 21.1643 15.7553 10.5379
Au 26.4009 17.3917 14.1863
Pt 21.9404 23.668 18.3407
Au 18.6572 26.7743 15.7491
Pt 23.2636 18.9871 13.7584
Au 16.5996 25.308 16.5334
Au 21.1169 15.6582 3.15649
Pt 21.6859 20.496 12.2309
Au 12.4255 25.7911 17.6142
Pt 12.9113 18.8799 16.3136
Au 4.25356 20.5573 17.7882
Pt 19.469 21.5662 21.7722
Au 26.0464 21.473 17.1754
Pt 15.2883 20.3661 15.1521
Au 8.11018 4.64025 12.3146
Pt 18.3567 17.2367 24.5854
Au 26.5016 15.9069 16.6775
Pt 15.3673 16.8599 6.36777
Au 22.1158 6.53218 13.0175
Au 7.30818 6.67669 21.2944
Pt 15.0769 20.3053 21.3642
Au 12.4807 3.91194 16.1164
Au 13.4425 25.4643 10.7114
Pt 15.1124 21.8385 9.14896
Au 6.64401 9.38736 20.6884
Pt 17.0861 22.6023 21.1062
Au 6.26002 16.3817 9.44707
