561
Atoms. Timestep: 20470
Pt 12.0922 18.5702 19.4329
Au 3.617 13.5829 20.3225
Pt 8.21853 9.12153 17.0678
Au 6.1035 9.66485 20.9198
Pt 8.39256 10.8715 10.4013
Pt 7.62176 12.51 13.8872
Au 26.0107 20.5816 12.5161
Pt 9.7968 15.3516 17.7735
Au 9.80629 25.184 12.5947
Pt 16.5848 12.2965 24.2463
Au 12.8435 19.1265 26.0884
Pt 9.07903 20.6268 19.9288
Au 15.7237 21.3943 5.50535
Pt 25.882 16.2747 14.3322
Pt 14.4683 21.6935 15.884
Au 21.193 11.948 4.65153
Au 22.381 8.69053 21.3522
Pt 15.3316 19.8473 19.0339
Au 22.3494 8.10643 12.957
Pt 10.8358 21.3452 10.7625
Au 10.848 14.689 26.2564
Pt 12.2307 14.2007 21.7521
Au 5.6116 17.772 20.9811
Pt 15.0513 10.3815 23.1896
Au 10.6257 17.5921 25.8493
Pt 12.1164 13.3294 24.24
Au 12.956 21.4776 6.54897
Au 22.0464 6.40915 15.0699
Pt 14.0539 17.0432 6.97968
Au 11.4521 11.7225 26.1129
Pt 17.2247 21.2953 11.5036
Au 20.2946 8.21056 7.99128
Pt 7.12083 18.8948 19.0228
Au 9.35517 11.7311 5.64233
Au 7.39298 22.536 19.1105
Pt 16.3599 16.7447 5.68645
Pt 12.1436 16.8145 11.2127
Pt 8.36818 9.22676 12.4201
Pt 17.4925 5.80234 17.5963
Pt 11.0881 8.55693 7.25286
Pt 13.8446 14.3723 11.5228
Pt 13.8425 8.82683 7.30655
Au 14.3474 7.56462 24.0391
Pt 20.0464 15.2053 10.1595
Au 15.1447 6.46538 8.06348
Pt 9.26038 17.6012 12.8788
Au 17.6853 17.7535 27.1107
Pt 19.0148 21.101 13.4105
Au 5.39256 17.4114 9.07209
Pt 21.9916 15.0978 16.4563
Au 16.8428 3.58066 19.0291
Pt 15.4702 7.59403 17.0204
Au 3.27292 16.3497 16.2383
Pt 12.2101 12.3912 12.5496
Au 21.5183 25.7374 19.5373
Pt 16.6958 12.0988 21.4707
Pt 17.139 19.2186 6.55251
Pt 9.14692 17.8595 8.3644
Au 10.3038 6.90688 5.46679
Au 12.697 6.25812 6.61329
Pt 19.9552 8.53383 14.5658
Au 4.70261 15.1114 10.476
Pt 9.66431 17.5871 19.6535
Au 9.26027 12.9703 24.8613
Pt 10.237 8.49437 9.99397
Au 24.5932 9.02402 14.2506
Pt 12.1984 24.2656 13.5015
Au 3.46897 15.4812 13.0421
Pt 10.7158 9.86525 20.9801
Au 16.3876 13.1955 26.6888
Pt 20.6899 9.24768 19.2677
Au 6.70738 7.28478 15.8245
Pt 17.8201 16.7526 22.6135
Au 10.0852 6.28085 8.20385
Pt 21.181 13.0887 21.3325
Au 4.22616 18.856 18.8043
Pt 11.2379 7.14804 15.7224
Au 21.3678 18.914 24.5473
Pt 14.8236 11.236 7.75891
Pt 12.9653 22.4627 11.5867
Au 10.0061 19.9549 6.68868
Au 4.68778 11.1826 14.2577
Pt 19.0035 12.5084 22.9242
Au 16.1723 25.7657 11.3241
Pt 12.0818 10.8273 6.6176
Au 12.7849 19.4923 11.8455
Pt 8.41832 8.78277 19.7354
Au 5.58759 8.53574 13.6045
Pt 5.74035 17.5193 17.1178
Au 16.6104 14.6251 3.45027
Pt 14.8218 7.68811 12.8993
Au 10.8975 20.0994 24.5158
Pt 14.0211 18.1285 9.71751
Au 10.6594 22.3095 8.14693
Pt 9.40471 15.8818 10.8792
Au 10.724 5.32697 17.8011
Pt 12.2737 10.0029 18.7107
Au 7.67342 23.0716 16.3707
Pt 19.2932 6.11963 15.597
Au 7.64622 23.6705 13.6136
Pt 5.60913 15.0295 16.6551
Au 13.4862 25.1161 11.0839
Au 24.523 21.92 10.6874
Pt 9.8389 10.6361 8.19325
Au 23.0737 16.1741 6.67982
Pt 20.9186 17.5886 11.0464
Au 2.5887 17.9065 13.9888
Pt 5.96171 14.5676 14.0363
Au 7.59488 21.7 21.8864
Pt 6.92806 10.9649 18.4261
Au 12.986 5.92088 22.2915
Pt 8.11712 20.5569 17.1792
Au 11.4733 15.0123 12.9992
Pt 15.457 23.1648 10.7563
Au 8.34194 19.8187 23.9742
Pt 9.1922 8.29793 14.7894
Au 15.0599 18.2598 27.2357
Pt 13.384 9.04283 21.8255
Au 18.3948 11.2573 25.8025
Au 11.8301 11.7209 4.07578
Pt 14.8004 23.4561 13.3912
Au 19.6117 19.3558 5.29619
Au 5.5098 20.9839 17.5714
Pt 7.26319 10.1447 14.7724
Au 5.56155 15.1208 21.4385
Pt 17.2518 18.324 20.5159
Au 19.9581 25.4048 21.792
Pt 15.6884 22.1478 8.12283
Au 26.8709 15.1208 12.0992
Pt 19.5476 21.6906 18.4291
Au 13.184 23.0564 8.88913
Au 5.89608 19.7605 22.8486
Pt 15.9231 8.93538 14.8065
Pt 14.2742 10.6171 5.11616
Pt 16.245 9.60519 20.9644
Pt 8.59326 13.2069 18.654
Pt 14.5796 14.4884 24.8721
Pt 13.6363 9.45449 16.2995
Pt 12.6328 8.45698 11.5357
Pt 12.5746 21.667 14.0231
Pt 9.93828 14.9081 23.0838
Pt 12.0062 19.8371 15.8034
Pt 8.80356 13.2195 9.34049
Au 5.26461 9.60302 16.5139
Au 5.58212 21.8903 14.9446
Pt 10.3497 7.49206 12.5628
Au 8.63153 6.39579 10.6786
Pt 10.8201 13.0762 7.42665
Au 5.9358 12.8269 9.27373
Pt 15.0132 7.10998 21.0749
Au 9.62062 14.5742 5.40686
Pt 19.482 18.4601 13.3135
Au 10.149 10.4227 23.9456
Pt 5.94444 13.4905 18.9375
Au 12.695 17.155 4.30546
Pt 18.7776 8.35925 21.092
Au 26.058 17.4061 18.9827
Pt 8.08839 18.8817 21.5295
Au 13.8943 15.3077 2.37962
Pt 10.4425 8.04684 18.2109
Au 12.3352 23.6259 21.7033
Pt 11.3974 14.5405 10.0219
Au 9.78856 6.65623 20.602
Pt 23.4386 17.3884 9.72545
Pt 12.1574 20.0424 8.85946
Au 23.6857 7.85674 16.7469
Au 15.4436 23.1651 22.3572
Pt 21.7867 19.701 9.49092
Au 6.90391 21.7057 9.42225
Pt 9.79698 10.8374 18.5983
Au 23.1933 10.5395 9.32747
Pt 8.2906 11.223 20.7055
Au 26.3607 12.7671 16.8239
Pt 12.0651 9.01668 14.0723
Au 16.4866 14.1755 15.5974
Pt 14.01 11.5719 10.7439
Au 19.2971 14.7236 15.787
Pt 12.0988 15.3365 6.69523
Au 15.4762 26.6362 15.9669
Pt 14.3858 15.174 4.96568
Au 9.91924 4.95016 13.0374
Pt 17.9156 19.6866 18.4188
Au 20.9307 16.9928 5.3578
Pt 13.0889 20.9249 17.9934
Au 12.9037 16.4192 26.865
Pt 20.2895 17.1679 15.4333
Pt 9.10809 20.3671 9.09189
Au 11.9005 14.4479 3.99355
Au 7.63696 6.61584 13.2524
Pt 13.6517 15.5753 9.13532
Au 12.5328 11.7126 15.1362
Pt 10.3765 18.6428 10.6625
Au 18.154 12.3025 16.748
Pt 6.83586 18.8273 12.9277
Au 16.7232 6.75907 25.2453
Pt 13.7665 6.82547 15.2129
Au 14.4844 17.2604 12.5086
Pt 12.1782 15.9496 24.1734
Au 17.5567 14.8439 18.1237
Pt 20.3385 11.9692 18.9533
Au 14.344 14.0288 20.0956
Pt 21.5136 19.7581 21.9537
Au 19.9387 6.67627 10.3286
Pt 10.4771 19.8589 17.8892
Au 8.48681 8.8967 22.371
Pt 14.5748 17.1459 24.8305
Au 7.1033 14.3251 23.5993
Pt 19.7826 14.947 22.6886
Pt 14.1337 19.2801 14.4822
Au 18.3139 21.6359 6.71785
Au 10.1644 21.907 22.5498
Pt 20.251 24.2183 17.2855
Au 24.0701 9.09575 19.1601
Pt 18.5407 19.4938 15.6849
Au 4.40915 11.2009 19.0996
Pt 6.50495 19.3613 15.4792
Au 6.14561 21.8943 12.1788
Pt 17.7033 24.0236 17.9389
Au 20.2427 6.06521 13.0063
Pt 7.68017 18.102 10.4702
Au 17.1792 26.2484 13.8668
Pt 21.4639 12.7064 8.99328
Au 9.824 24.4043 15.2046
Pt 15.0089 23.432 18.0303
Au 12.0171 17.5722 14.1015
Pt 14.5262 20.7488 10.0459
Au 23.9883 13.3982 21.0116
Pt 14.183 11.3109 20.4511
Au 22.7048 11.258 22.7593
Pt 20.0296 21.6568 9.49227
Au 19.3945 4.35543 19.4857
Au 15.4685 15.6188 27.4035
Pt 8.00842 21.0363 14.1179
Au 18.3238 12.3506 4.31269
Pt 19.5647 19.4019 7.98969
Au 6.43264 8.00326 11.0933
Pt 21.8758 20.5157 19.4319
Au 11.0294 24.0757 10.4462
Pt 12.0794 23.1109 16.2787
Au 3.64137 13.6818 15.0321
Pt 11.7414 16.7852 21.4571
Au 18.4796 16.6945 4.06021
Pt 14.9361 20.9101 12.6456
Au 11.7264 25.6795 20.1002
Pt 21.9192 23.107 19.2455
Au 17.3105 21.3061 24.2102
Pt 16.0093 19.298 16.3227
Au 4.22676 17.6899 11.6823
Au 13.3801 25.8334 17.8791
Pt 10.1364 22.5749 12.99
Pt 12.4643 10.0479 9.21916
Pt 17.9749 10.4777 14.4867
Pt 10.0684 12.461 22.1539
Pt 16.6789 10.9983 9.90876
Pt 9.65071 12.9146 11.9736
Pt 18.5976 13.5341 20.4052
Pt 14.0997 6.33039 10.7902
Pt 12.9338 7.13836 17.765
Pt 22.5011 17.8322 20.4179
Pt 20.2312 14.5007 18.3903
Pt 12.1907 7.62094 20.1898
Pt 20.9923 12.5683 16.3813
Au 17.1589 24.1005 6.9289
Au 22.4148 18.9263 6.76822
Pt 12.5257 7.33012 9.0698
Au 8.4979 23.1966 10.9329
Pt 18.5837 17.4062 9.52384
Au 15.8703 4.51149 9.93698
Pt 16.3429 10.1846 17.387
Au 20.6991 24.6214 9.91315
Pt 16.8319 10.4179 5.84216
Au 17.5275 16.8227 15.1374
Pt 18.2251 10.596 19.44
Au 23.8479 23.6079 12.9677
Pt 18.6019 10.3595 7.81452
Au 13.543 4.55637 17.0886
Pt 17.4239 6.08117 20.5658
Au 22.0714 8.29922 10.2655
Pt 24.6575 18.7061 14.103
Au 24.9564 18.056 7.7199
Pt 10.0368 22.4551 17.9965
Au 13.1887 4.64471 8.88789
Pt 15.4152 18.0321 22.4499
Pt 22.2291 9.70332 15.2598
Au 21.5627 10.6113 7.09179
Au 12.3317 15.1801 15.9998
Pt 18.2832 8.82229 9.92743
Au 4.4176 19.928 13.3849
Pt 16.3114 18.7334 10.8918
Au 7.90029 8.44319 8.81157
Pt 12.3566 18.87 6.44082
Au 13.5122 3.92769 11.6844
Pt 10.8613 9.91669 16.3378
Au 26.05 19.8199 17.6042
Pt 12.546 6.11221 13.0798
Au 13.865 12.0137 17.6771
Pt 22.561 11.1401 20.1546
Au 17.7078 3.82146 21.6819
Pt 10.1214 14.8074 20.3223
Au 21.4403 13.2301 24.1893
Pt 19.1801 16.1941 20.2488
Au 21.0947 5.17914 17.4195
Pt 19.7317 10.2301 16.8452
Au 8.60354 15.8903 25.2083
Pt 9.84537 17.5387 23.323
Pt 22.5325 15.0212 9.08692
Au 17.1761 19.1748 3.96402
Au 3.39029 13.8427 17.7236
Pt 24.6312 14.8046 10.6877
Au 20.2712 14.4504 4.69842
Pt 15.168 5.82894 18.8458
Au 18.284 26.2151 16.3866
Pt 14.7121 18.883 5.1484
Au 12.6312 5.01991 19.725
Pt 11.167 12.0381 9.99545
Au 11.2093 12.9568 17.3584
Pt 17.2777 23.6857 12.7437
Au 10.5721 25.1063 17.7495
Pt 19.1781 17.0804 24.8516
Au 20.4895 8.17153 23.1563
Pt 18.0465 8.2586 16.4122
Au 14.4734 23.7323 6.45593
Pt 10.0844 21.6335 15.5051
Au 14.4144 24.8445 20.3526
Pt 17.9773 10.1688 23.0875
Au 11.0925 7.91109 22.8584
Pt 16.9066 18.481 24.5982
Pt 20.3053 14.9081 7.45341
Au 23.9924 20.5443 8.36446
Au 24.6837 19.2814 20.7313
Pt 19.5484 23.0244 11.7568
Au 19.1093 19.7319 25.7837
Pt 23.2061 16.0126 14.3516
Au 25.6704 14.4874 18.9326
Pt 18.72 17.049 6.86639
Au 15.4433 11.6471 15.268
Pt 24.4959 16.9466 12.1167
Au 5.66376 20.6685 20.3263
Pt 16.366 8.90801 8.0742
Au 12.6659 9.58726 24.6178
Pt 14.7473 19.6945 7.64602
Au 16.056 12.3392 12.5724
Pt 19.3085 24.2512 14.4095
Au 5.82998 10.0972 9.51946
Pt 16.278 17.437 8.30566
Au 15.5164 17.1996 3.1875
Pt 15.9221 16.0077 10.4645
Au 25.815 11.5503 14.2355
Pt 17.9965 16.8258 11.9805
Pt 14.7909 9.01488 10.1635
Au 4.35619 16.0424 19.0382
Au 27.1048 15.7731 16.7941
Pt 15.8428 12.8261 5.36679
Au 22.5942 21.5699 23.5883
Pt 11.6704 17.3187 8.54152
Au 25.1621 15.3317 8.07385
Pt 12.4401 23.4144 18.8799
Au 6.92317 19.3149 7.95404
Pt 19.3635 23.7254 19.9427
Au 20.055 26.7226 14.3134
Pt 18.8431 19.1004 22.8435
Au 18.1144 7.93046 6.31038
Pt 20.5366 13.1034 11.7485
Au 21.1343 21.3084 6.88584
Pt 17.2543 20.2218 8.96982
Au 22.8877 15.136 22.8209
Pt 7.86393 13.7168 21.1454
Au 6.04711 8.19935 18.614
Pt 17.7534 15.0312 8.63933
Au 14.7681 20.0861 24.4383
Pt 19.1337 22.1446 15.8773
Pt 11.6522 12.3708 19.934
Pt 21.8555 15.332 20.372
Pt 14.4684 13.0164 22.6991
Pt 13.2816 13.0426 6.0262
Pt 11.1776 17.501 17.0499
Pt 15.8135 5.23826 12.6188
Pt 17.093 12.5456 7.60681
Pt 14.1526 10.3225 13.1104
Au 9.82123 23.5832 20.3617
Pt 22.2768 15.3723 11.8317
Au 15.5125 8.01579 5.45508
Pt 17.1272 8.16151 18.9907
Au 24.3853 10.1004 11.7416
Pt 19.4642 6.97362 18.7657
Au 8.20754 6.49565 18.1312
Pt 6.5743 16.291 12.0679
Au 19.5101 9.99845 5.28861
Pt 8.5939 14.9677 13.27
Au 24.902 11.7715 18.8972
Pt 21.2092 20.2985 12.1089
Au 11.5764 4.53994 15.1608
Pt 23.0823 12.7516 11.2347
Au 25.8657 19.4231 10.0217
Pt 14.5202 8.92643 19.1101
Au 24.0742 22.9639 15.5929
Pt 17.8114 22.956 9.48495
Pt 14.1791 24.3881 15.6849
Pt 7.11311 13.6434 11.4801
Au 10.4571 9.48472 4.5615
Au 17.881 6.37852 8.55861
Pt 10.8225 10.2498 11.8113
Au 24.3442 12.8625 8.7557
Pt 16.3569 6.12588 15.0907
Au 25.788 12.4934 11.5635
Pt 12.4076 11.3573 22.5301
Au 26.3385 16.8246 9.97932
Pt 16.6038 7.11323 10.7911
Au 14.6601 14.8654 17.5213
Pt 20.7275 17.2353 22.3562
Au 16.1543 17.2023 18.0973
Pt 22.4534 10.6113 17.6175
Au 14.7247 16.6073 15.2334
Pt 20.4403 11.2795 14.0662
Au 21.4947 25.0045 12.5139
Pt 8.3987 20.4846 11.5876
Au 12.0601 26.0246 15.491
Pt 8.01706 14.3701 16.0634
Au 8.98029 5.65489 15.5678
Pt 16.7589 7.94479 22.9018
Pt 20.3963 10.4144 9.69296
Au 4.5388 13.0442 12.2373
Au 7.32933 11.1314 7.56434
Pt 13.2262 13.0577 8.65023
Au 19.8266 23.7047 7.606
Pt 23.2116 11.5573 13.6839
Au 16.1135 26.0856 18.5034
Pt 20.8735 22.2467 21.4405
Au 13.7285 18.1468 17.3022
Pt 17.8016 7.28913 13.2985
Au 13.9691 13.8917 14.2005
Pt 23.4622 21.0265 13.5242
Au 23.6325 21.7768 21.099
Pt 18.7402 20.8665 20.9426
Au 27.0718 13.942 14.5473
Pt 16.7232 9.52045 12.1899
Au 24.6599 16.2346 21.0112
Pt 19.9528 21.226 23.6917
Au 13.3038 13.704 27.0667
Pt 19.9312 18.7115 19.9958
Au 18.1852 4.97414 11.4215
Pt 15.7418 13.4296 9.83908
Pt 23.6436 16.1327 18.4261
Au 7.59943 11.491 23.2519
Au 14.9789 4.19782 20.9326
Pt 25.0361 17.5112 16.5106
Au 5.30597 15.0501 7.75498
Pt 20.1909 10.5906 21.514
Au 7.22448 15.8785 19.0263
Pt 19.9798 15.6036 13.1471
Au 16.178 15.1722 13.1273
Pt 9.36465 18.929 15.2841
Au 12.3249 15.6098 18.8984
Pt 5.04134 17.2436 14.3646
Au 16.7382 18.909 13.5309
Pt 16.7681 23.9705 15.4646
Au 21.4766 16.0086 24.8452
Pt 16.7124 21.5089 14.4885
Au 17.1269 24.9862 20.8187
Pt 20.6624 19.4725 17.3708
Au 14.2362 12.8027 3.28063
Pt 18.7514 17.3038 17.6653
Au 20.9742 26.6821 16.9821
Pt 14.2901 17.1917 20.0865
Au 22.487 13.415 6.58223
Pt 9.71362 15.3919 8.05309
Au 25.9928 21.015 15.1454
Au 18.0773 25.4988 9.20416
Pt 23.668 12.4688 16.0464
Au 18.7037 8.51194 25.0959
Pt 7.43107 16.8107 14.8786
Au 15.3468 24.9581 8.77414
Pt 16.8556 22.34 19.8518
Au 16.2977 12.5173 18.8342
Pt 16.8087 21.6687 17.2027
Au 5.6257 12.2536 21.4888
Pt 10.7635 19.359 21.7367
Au 7.58496 13.7814 6.99193
Pt 8.42012 17.5882 17.2282
Au 5.53308 19.767 10.5802
Pt 17.9137 14.1302 11.3908
Pt 17.8901 14.575 5.96597
Pt 10.2933 13.4133 14.7897
Pt 7.31908 15.5169 9.41467
Au 24.1897 21.8153 18.3143
Pt 21.7262 13.748 14.0801
Au 6.23991 10.8957 12.0447
Pt 16.8679 14.415 22.8228
Au 7.41367 16.5976 6.82508
Pt 19.6381 12.5238 6.73245
Au 18.0149 4.28224 14.1023
Pt 21.0825 17.2509 8.36174
Au 16.5793 20.2919 26.5918
Pt 16.8743 15.7771 25.0811
Pt 12.6734 18.3961 23.419
Pt 19.7141 8.8189 12.0735
Au 10.2184 17.2439 5.86578
Pt 21.687 10.5645 11.868
Au 23.1335 24.6579 17.5745
Pt 24.4827 13.967 13.4359
Au 22.5409 24.2867 21.6698
Pt 8.71203 11.782 16.3584
Au 20.5495 10.6139 24.3246
Pt 23.618 20.2867 16.1104
Au 11.2808 5.50867 10.6858
Pt 22.776 13.4309 18.5169
Au 14.2129 4.16731 14.4029
Pt 21.2161 17.0156 18.2548
Au 23.3946 17.9319 22.9645
Pt 8.20083 16.2784 21.5407
Au 20.5515 6.24719 21.1483
Pt 15.3624 14.6194 7.3797
Au 27.1681 18.5147 15.2794
Pt 24.6653 14.7973 16.2924
Pt 21.0113 7.96754 16.9603
Pt 9.86239 10.9048 14.0484
Au 22.3419 6.95947 19.1329
Au 12.8014 8.35565 4.8457
Pt 23.5868 18.9017 18.3182
Au 18.6226 6.07398 23.1485
Pt 23.6344 19.4173 11.4305
Au 12.8967 21.3731 22.9921
Pt 22.0607 22.5165 11.2687
Au 18.1915 15.199 27.356
Pt 21.3173 22.5578 13.9671
Au 8.56159 8.95599 6.29753
Pt 14.2862 15.7273 22.4138
Au 15.8776 5.34882 23.1212
Pt 21.1684 20.0692 14.8887
Au 3.82854 19.235 16.0543
Pt 11.6119 21.2915 20.2003
Au 25.0852 10.2131 16.6396
Pt 13.6168 19.541 21.2397
Au 18.8526 3.68445 16.8035
Pt 18.6583 11.2483 11.7881
Au 6.90843 17.3254 23.5927
Pt 18.5458 13.1473 13.7948
Au 14.2969 26.146 13.5233
Pt 19.0414 19.5691 10.8832
Au 18.3301 23.1925 22.5091
Au 22.4557 22.785 8.69562
Pt 22.5836 17.9109 16.0502
Au 18.9315 26.2963 19.0644
Pt 6.01072 12.4112 16.3017
Au 22.0341 24.8828 15.1622
Pt 14.2372 21.9759 20.2831
Au 20.856 23.7196 23.7106
Pt 18.9097 12.6689 9.46244
Au 16.1793 9.51966 25.403
Pt 9.93283 16.1543 15.1767
Au 18.948 25.7512 11.819
Pt 10.5594 19.945 13.2262
Au 26.945 18.028 12.4645
Au 18.9649 13.9967 25.1751
Pt 16.4735 15.6658 20.5526
Au 14.1925 11.7103 25.4651
Au 16.1611 20.5582 21.8626
Pt 22.1485 18.0577 13.2915
Au 16.1216 3.77537 16.3664
Pt 21.7536 22.0767 16.7558
Au 3.36735 11.4614 16.6242
