561
Atoms. Timestep: 20103
Pt 7.54256 7.19445 14.993
Au 5.67698 7.09941 13.0131
Pt 7.51032 11.0153 11.0265
Au 5.32035 9.03378 14.9411
Pt 5.51903 11.039 12.9572
Pt 5.40375 11.0154 16.9176
Au 5.6893 13.186 7.15976
Pt 5.70955 15.1009 9.02285
Au 3.58054 13.0547 12.8606
Pt 3.99912 15.0488 11.034
Au 3.48536 15.0214 18.8229
Pt 5.43278 13.0156 14.9647
Au 5.57948 7.06226 16.836
Pt 5.36069 14.9695 16.966
Pt 7.2386 10.9957 19.0046
Au 7.68579 13.149 5.26396
Au 3.55983 17.0025 12.9142
Pt 7.13614 17.6977 6.723
Au 3.41263 14.994 14.9011
Pt 5.58124 17.0428 11.0327
Au 3.41886 17.0224 16.9099
Pt 5.39198 16.9495 15.0252
Au 5.51793 16.9276 22.9827
Pt 5.3173 16.9737 19.0221
Au 5.1217 14.9842 21.0454
Pt 7.15177 14.8577 22.8548
Au 5.00581 17.697 8.4324
Au 4.94101 21.4707 12.4311
Pt 5.11797 19.5444 10.4757
Au 3.61393 19.0002 18.8209
Pt 5.47081 18.9729 16.9684
Au 5.26334 18.9206 21.0372
Pt 5.54019 20.865 18.9037
Au 3.63876 19.029 14.9508
Au 5.46724 22.7419 16.9858
Pt 5.60034 20.9024 15.0215
Pt 9.52285 7.23643 13.0804
Pt 7.68329 7.22433 11.1793
Pt 7.35832 9.08352 16.9723
Pt 9.55064 5.35038 15.0283
Pt 9.36704 7.23152 17.0533
Pt 5.57507 12.9812 10.9772
Au 7.47425 8.9981 9.02277
Pt 9.68921 9.19554 7.22633
Au 5.55898 9.07101 11.0711
Pt 7.46978 9.14457 13.0614
Au 7.65454 5.22099 13.1231
Pt 9.46889 9.12544 11.0546
Au 7.62054 5.16742 16.8751
Pt 7.32452 11.0306 15.0309
Au 9.3717 9.16929 15.0681
Pt 9.3902 11.0649 13.0613
Au 7.25782 7.01171 18.9873
Pt 9.43776 5.37567 18.9323
Au 11.3788 3.52682 18.9951
Pt 9.18363 9.01399 19.1154
Pt 11.152 9.06824 21.0379
Pt 9.55588 13.0638 7.14233
Au 11.6574 9.17005 5.26307
Au 5.58412 11.1043 9.06238
Pt 7.5503 13.0482 9.05485
Au 9.43984 11.0652 9.06701
Pt 11.5466 15.0051 7.12337
Au 3.56285 11.124 14.8637
Pt 5.52694 14.9905 13.0869
Au 7.39822 12.9667 13.0349
Pt 9.38931 13.018 11.0822
Au 3.45818 13.0083 16.8673
Pt 7.17954 12.9826 17.0873
Au 9.224 11.0769 17.139
Pt 9.2358 12.9811 15.137
Au 5.10715 12.7687 19.0843
Pt 7.09887 12.942 20.9833
Au 9.00183 10.9858 21.1357
Pt 9.11097 12.9795 19.1472
Au 5.35856 9.07059 18.7814
Pt 8.99974 12.8953 22.9769
Au 9.06678 10.9159 24.7367
Pt 11.1435 10.9773 23.0238
Pt 7.66589 15.1159 7.11427
Au 7.52299 11.0371 7.02942
Au 9.49547 15.001 9.09002
Pt 7.5753 17.0061 9.16871
Au 11.5012 16.9509 9.1362
Pt 9.61964 17.0167 7.1691
Au 7.42285 14.9897 11.0723
Pt 7.38584 16.9386 13.0828
Au 9.37727 14.9854 13.1283
Pt 9.42896 16.9383 11.1134
Au 7.35768 14.9893 15.1094
Pt 7.24045 16.9496 17.113
Au 9.20802 14.9491 17.1998
Pt 9.30731 16.9057 15.1796
Au 7.06545 14.8898 19.0944
Pt 7.20771 16.9286 20.9998
Au 9.09193 14.9049 21.1025
Pt 9.16184 16.8959 19.1889
Au 8.84199 14.6711 24.9533
Pt 10.9549 14.8803 23.1705
Au 10.6375 16.695 25.2395
Pt 8.91293 16.7848 23.1009
Au 8.96598 17.7214 4.70664
Au 8.80616 19.8563 6.4575
Pt 6.98706 19.6299 8.54446
Au 9.51896 19.005 9.10275
Pt 8.96254 21.6081 8.62454
Au 7.56627 19.0021 11.1214
Pt 5.55352 18.9152 13.0431
Au 9.4388 18.8514 13.1564
Pt 9.44384 21.014 11.1586
Au 7.39267 18.8822 15.0701
Pt 7.45567 20.8679 17.06
Au 9.31237 18.8513 17.1787
Pt 9.39972 22.8316 17.1033
Au 7.27351 18.9331 19.1307
Pt 9.15485 18.9712 21.1365
Au 10.7536 18.8445 23.4086
Pt 9.2799 20.8698 19.1448
Au 7.3019 18.9656 23.0352
Au 12.9078 17.2083 26.5101
Pt 11.3145 21.0719 24.6486
Au 6.80291 21.7173 10.3736
Au 6.89383 23.4651 12.544
Pt 7.51568 20.8975 13.0791
Au 11.3875 20.8944 13.2133
Pt 9.47575 22.9374 13.157
Au 9.39886 20.8972 15.1324
Pt 7.45224 22.7756 18.9567
Au 7.41447 24.6781 17.0325
Pt 7.51064 22.812 15.1034
Au 7.17355 21.0504 21.097
Au 9.12146 21.1421 23.0987
Pt 9.33303 22.8469 20.9401
Pt 11.4844 7.22919 11.1451
Pt 15.4901 9.21865 9.26527
Pt 11.4956 5.3653 13.1142
Pt 13.5452 5.42192 11.2109
Pt 11.3186 5.31384 17.0365
Pt 13.3718 5.33875 15.1096
Pt 11.3235 5.37172 20.942
Pt 13.3294 5.32722 19.1726
Pt 11.2723 7.18535 22.8791
Pt 11.5635 11.1104 7.23318
Au 11.5658 7.12111 7.19164
Au 9.51893 7.07197 9.10041
Pt 11.4855 9.11852 9.16837
Au 11.6673 5.22961 9.28808
Pt 13.5463 11.1014 5.41305
Au 9.60331 5.19587 11.1952
Pt 11.3787 9.17376 13.1001
Au 13.419 7.26056 13.1782
Pt 13.4161 9.19461 11.185
Au 11.4067 7.23962 15.1169
Pt 11.2588 9.15459 17.1599
Au 13.315 7.17802 17.1604
Pt 13.3207 9.18521 15.2049
Au 13.3801 3.59799 17.1138
Pt 11.3009 7.20571 19.0624
Au 9.14047 6.97842 21.1081
Pt 13.2096 9.1606 19.1789
Au 7.13516 9.01025 20.9636
Pt 9.26729 9.02198 22.8606
Au 15.0116 9.00384 25.1725
Pt 13.1275 9.06521 23.151
Pt 11.5642 13.0227 5.32286
Au 15.6135 9.19563 5.27875
Au 9.66337 11.1185 5.21893
Pt 11.4432 13.0499 9.1059
Au 13.465 11.1536 9.19427
Pt 13.5072 13.1037 7.14725
Au 11.4014 11.1233 11.1259
Pt 11.3188 13.0316 13.1619
Au 13.3628 11.1359 13.2044
Pt 13.3894 13.06 11.1875
Au 11.3171 11.1365 15.1606
Pt 11.1979 13.0321 17.2172
Au 13.2391 11.1402 17.2477
Pt 13.2757 13.0514 15.2406
Au 11.1366 11.0768 19.193
Pt 11.0558 12.9695 21.2182
Au 13.1356 11.0728 21.2219
Pt 13.1439 13.0592 19.3281
Au 11.0541 8.99337 24.9057
Pt 10.8947 12.8688 24.9059
Au 12.9165 11.0198 25.2545
Pt 13.0038 12.9879 23.2738
Pt 11.5644 17.0647 5.31467
Au 13.4529 14.9843 5.00674
Au 9.67065 15.0466 5.09067
Pt 11.4968 19.0022 7.23985
Au 13.4673 14.9875 9.14343
Pt 13.5092 16.921 7.10535
Au 11.4108 14.9671 11.163
Pt 11.3796 16.8739 13.2164
Au 13.3284 14.9588 13.2349
Pt 13.4019 16.8879 11.216
Au 11.2636 14.9441 15.2209
Pt 11.2429 16.8768 17.2514
Au 13.2043 14.9594 17.3022
Pt 13.2767 16.8746 15.2817
Au 11.1674 14.9687 19.2628
Pt 10.9997 16.9147 21.3405
Au 13.0594 15.002 21.3905
Pt 13.133 16.8987 19.3694
Au 14.9892 14.9966 23.5278
Pt 15.0815 17.146 25.1246
Au 12.8244 14.7296 25.4279
Pt 15.1657 19.0036 23.191
Pt 10.9494 21.5631 6.77199
Au 12.8895 21.6262 4.89242
Au 10.9507 19.6804 4.67649
Pt 11.5343 20.9131 9.27806
Au 13.4739 18.8677 9.2045
Pt 13.5358 20.9458 7.3911
Au 11.4192 18.8832 11.2035
Pt 11.3535 22.8531 15.1988
Au 13.3637 18.846 13.2771
Pt 15.4102 22.8681 11.3638
Au 11.355 18.8448 15.239
Pt 11.2865 20.8752 17.2299
Au 13.2443 18.8496 17.2812
Pt 13.3271 20.908 15.2642
Au 11.1842 18.8303 19.2656
Pt 11.1463 20.8451 21.2287
Au 13.0214 18.7879 21.4474
Pt 11.2661 22.8148 19.1485
Au 12.8782 16.893 23.5501
Pt 13.1491 19.218 24.8755
Au 13.1623 24.8935 22.9592
Pt 13.2123 21.0096 22.9455
Au 12.9063 23.5525 6.84696
Au 8.86221 23.6739 10.5292
Pt 11.4709 22.8351 11.2733
Au 11.0251 25.3625 10.6084
Pt 10.9571 23.4381 8.72453
Au 13.4404 20.8835 11.2887
Pt 11.4646 24.7191 13.2285
Au 13.3985 22.873 13.2994
Pt 13.4912 24.7274 11.369
Au 9.4355 24.8687 15.1288
Pt 11.3237 24.7052 17.1532
Au 13.2566 22.822 17.2091
Pt 13.2942 24.7709 15.251
Au 9.31679 24.8309 19.0057
Pt 11.268 22.9435 22.859
Au 11.2344 24.9254 20.9692
Pt 13.2179 24.7567 19.106
Au 13.188 22.9443 24.9269
Au 15.7476 25.3788 23.6351
Pt 13.2103 22.9033 21.0622
Pt 13.5437 9.16853 7.29433
Pt 15.5558 5.52141 9.3843
Pt 15.6003 7.33191 7.41046
Pt 15.4335 5.40945 13.2165
Pt 17.4368 5.47172 11.3621
Pt 15.373 5.33948 17.2259
Pt 17.3892 5.4162 15.283
Pt 15.2123 5.36546 21.0683
Pt 17.2551 5.3966 19.2427
Pt 15.1158 7.18693 23.0641
Pt 19.0312 7.26314 23.1211
Pt 17.5485 11.1586 5.50859
Au 13.6962 7.25359 5.46785
Au 13.7327 5.34882 7.44212
Pt 13.5119 7.3008 9.26284
Au 19.3495 5.37261 9.47887
Pt 17.5106 9.20611 7.35448
Au 15.4634 7.32531 11.2721
Pt 15.3889 9.21681 13.2493
Au 17.3965 7.30449 13.3111
Pt 17.4572 9.22742 11.2875
Au 15.3551 7.23269 15.2413
Pt 15.2624 9.19992 17.2479
Au 17.3072 7.2721 17.2822
Pt 17.3352 9.23731 15.3063
Au 15.2524 7.25851 19.1815
Pt 13.2216 7.26474 21.0616
Au 17.106 5.24892 22.9799
Pt 17.1356 7.28476 21.1828
Au 13.2188 5.28136 22.8921
Pt 15.1446 9.17292 21.25
Au 17.0564 7.13634 24.9726
Pt 17.087 9.12138 23.1735
Pt 15.5122 12.9914 5.3244
Au 17.5612 14.9629 5.08629
Au 15.5086 11.1161 7.2436
Pt 15.444 13.1058 9.14422
Au 17.4643 11.1816 9.29293
Pt 17.4643 13.1218 7.25659
Au 15.421 11.1763 11.2469
Pt 15.3435 13.0777 13.2649
Au 17.3664 11.1891 13.3015
Pt 17.4034 13.1206 11.267
Au 15.3025 11.1504 15.2767
Pt 15.2102 13.0911 17.3222
Au 17.2463 11.215 17.326
Pt 17.279 13.1133 15.3342
Au 15.1818 11.183 19.3023
Pt 15.0725 13.0776 21.4479
Au 17.1168 11.2123 21.4016
Pt 17.1605 13.1145 19.4114
Au 15.0199 11.0569 23.3364
Pt 14.9332 12.9233 25.2438
Au 17.0406 12.8021 26.8334
Pt 17.0288 13.1038 23.5397
Pt 13.5089 19.0378 5.44769
Au 15.461 17.0684 5.05168
Au 15.4783 15.0488 7.01461
Pt 15.4179 16.9115 9.14165
Au 17.3975 15.0596 9.23742
Pt 17.4384 16.9142 7.11829
Au 15.377 14.9918 11.2306
Pt 15.308 16.879 13.2926
Au 17.323 15.0045 13.3132
Pt 17.3624 16.8995 11.3086
Au 15.258 14.9748 15.3068
Pt 15.1808 16.8658 17.3547
Au 17.194 15.0038 17.3968
Pt 17.2358 16.8726 15.3589
Au 15.1274 14.9911 19.4092
Pt 15.0722 16.9071 21.5075
Au 17.0561 14.9996 21.486
Pt 17.134 16.8912 19.4603
Au 16.9443 15.1101 25.54
Pt 15.0909 21.0031 24.9579
Au 16.9763 19.0222 25.4062
Pt 17.1215 17.0357 23.4202
Pt 15.5435 22.8641 7.50354
Au 15.5866 21.0889 5.40358
Au 15.4758 18.9143 7.22709
Pt 19.3141 22.8602 11.4825
Au 17.3829 18.8267 9.34308
Pt 17.4291 20.8906 7.52006
Au 15.384 18.8272 11.3076
Pt 15.3447 20.9093 13.3262
Au 17.2901 18.8176 13.3365
Pt 17.3478 20.8867 11.4106
Au 15.2459 18.8377 15.3187
Pt 15.2126 20.8956 17.2907
Au 17.1616 18.7884 17.3869
Pt 15.2756 22.9026 15.276
Au 15.1282 18.7985 19.3866
Pt 15.1942 20.915 21.1968
Au 17.1552 18.8857 21.3535
Pt 19.0979 22.8655 19.2827
Au 17.6328 21.6453 25.7245
Pt 15.1666 22.8785 23.0712
Au 19.0256 16.9995 25.5145
Pt 17.1281 20.9358 23.1986
Pt 17.3906 22.8631 9.52633
Au 18.4543 21.4182 5.11927
Au 15.4394 20.9036 9.3635
Pt 13.4832 22.9162 9.39025
Au 18.0923 25.3797 8.79888
Pt 18.2716 23.2968 7.05841
Au 15.4159 24.8781 9.37418
Pt 15.3665 24.7974 13.2945
Au 17.1987 20.849 15.3639
Pt 17.2755 22.8489 13.3837
Au 15.2805 26.6132 15.2819
Pt 15.2081 24.7721 17.2297
Au 17.2257 26.703 17.2813
Pt 17.3484 24.7618 11.4307
Au 13.1903 20.8221 19.2916
Pt 15.1956 22.8644 19.1906
Au 17.1694 20.8763 19.3018
Pt 17.1605 22.8897 17.2629
Au 15.1826 26.6248 19.1411
Pt 15.1663 24.7761 21.0842
Au 17.7807 23.6284 23.8472
Pt 17.1186 22.8832 21.2203
Pt 17.4959 7.32291 9.36468
Pt 19.3557 5.46573 13.3689
Pt 19.4234 7.32359 11.3699
Pt 19.2746 5.42389 17.3128
Pt 21.2008 5.49996 15.399
Pt 19.0747 5.49784 21.1475
Pt 19.2341 7.30896 19.3097
Pt 19.47 11.1726 7.45321
Au 19.4279 7.25768 7.40675
Pt 19.4658 9.20532 9.37614
Au 21.4598 7.20747 9.37719
Pt 21.3691 9.29781 7.52924
Au 21.2993 5.33208 11.5195
Pt 19.3746 9.25567 13.3282
Au 23.2129 5.41739 13.6136
Pt 21.4008 9.20401 11.3923
Au 19.3137 7.33065 15.3474
Pt 19.2649 9.27773 17.3732
Au 21.1209 5.28005 19.2588
Pt 21.177 7.3812 17.4138
Au 17.2295 9.25581 19.3095
Pt 19.172 9.18157 21.309
Au 21.219 7.1237 21.435
Pt 21.2142 9.17165 19.4371
Au 19.0399 9.05954 25.2263
Pt 17.0352 10.9128 25.0958
Pt 20.9827 9.19811 23.2525
Pt 19.4944 13.0014 5.4982
Au 21.5109 11.2158 5.52343
Au 19.5006 9.29025 5.49387
Pt 19.4335 13.1565 9.2908
Au 21.4768 11.2005 9.41846
Pt 21.4472 13.09 7.49297
Au 19.4323 11.2149 11.3343
Pt 19.352 13.1607 13.3323
Au 21.3631 11.291 13.3841
Pt 21.4652 13.1808 11.3357
Au 19.2908 11.2603 15.3605
Pt 19.2351 13.1616 17.4107
Au 21.251 11.273 17.4384
Pt 21.3612 13.1733 15.4175
Au 19.2227 11.235 19.4157
Pt 19.1316 13.1264 21.5315
Au 21.1614 11.1861 21.4353
Pt 21.2364 13.1517 19.4954
Au 19.0794 11.1188 23.3733
Pt 19.1056 13.0653 25.2466
Au 20.9964 11.0949 25.2701
Pt 21.1469 13.0741 23.4279
Pt 17.4343 19.0049 5.48141
Au 19.6638 17.0988 5.20855
Au 19.3887 15.0784 7.25371
Pt 19.4174 16.9734 9.29023
Au 21.4637 15.0717 9.3684
Pt 21.3915 16.9507 7.41355
Au 19.4012 15.0566 11.3171
Pt 19.3272 16.8966 13.3631
Au 21.3973 15.0398 13.3886
Pt 21.4151 16.9876 11.368
Au 19.2948 15.0206 15.3817
Pt 19.2096 16.8567 17.4299
Au 21.2827 15.0117 17.4592
Pt 21.3453 16.8814 15.4394
Au 19.1532 15.0053 19.4716
Pt 19.1183 16.9515 21.4698
Au 21.1163 15.0237 21.5003
Pt 21.1722 16.9202 19.4932
Au 19.0008 15.0595 23.4892
Pt 21.0294 17.0752 23.3624
Au 21.6621 17.6253 25.8648
Pt 21.0612 19.009 21.4703
Pt 20.2625 21.4209 7.05647
Au 21.8987 23.5059 6.99452
Au 19.2934 18.9088 7.31978
Pt 19.3192 20.8977 9.49501
Au 21.4234 19.0277 9.17725
Pt 21.9162 21.6504 9.10509
Au 19.38 18.8474 11.3463
Pt 19.1714 22.8472 15.3748
Au 21.2938 18.8215 13.4731
Pt 21.1999 20.8851 15.4425
Au 19.2333 18.7793 15.404
Pt 17.2475 24.7782 15.2914
Au 21.1787 18.8172 17.4079
Pt 23.1453 20.89 13.572
Au 19.1681 18.8304 19.4142
Pt 19.129 20.9231 21.3887
Au 21.0788 20.923 19.4627
Pt 23.0542 20.8851 17.4751
Au 19.666 19.667 25.884
Pt 19.6593 23.4973 21.8066
Au 19.7834 21.7075 23.9836
Pt 21.653 23.5066 19.9399
Au 22.0966 25.211 9.03706
Pt 20.018 23.5136 8.97965
Au 23.9765 23.205 8.864
Au 19.2481 20.8342 13.4252
Pt 19.2223 24.7524 13.4026
Au 21.8546 25.4722 12.9195
Pt 21.1556 22.8306 13.5058
Au 19.2257 26.6007 15.3412
Pt 19.155 24.7532 17.3258
Au 19.1757 20.8592 17.3506
Pt 21.1472 24.6986 15.4287
Au 19.7741 25.5253 19.9087
Pt 17.1779 24.7586 19.2269
Au 21.7394 25.4303 17.9798
Pt 21.1143 22.8418 17.3873
Au 17.758 25.5339 21.7878
Pt 21.3215 7.35233 13.3889
Pt 23.0294 5.65708 17.2844
Pt 23.162 7.40834 15.4173
Pt 23.3111 9.27264 9.57228
Au 23.3918 7.20611 11.4588
Pt 23.2623 9.31949 13.4556
Au 25.1791 7.40349 13.5964
Pt 25.0789 9.30542 11.6176
Au 21.2772 9.31964 15.3973
Pt 23.1547 9.27686 17.4366
Au 25.0956 7.37579 17.3828
Pt 25.0736 9.30542 15.5003
Au 23.2142 7.17242 19.4723
Pt 23.0141 9.25389 21.3578
Pt 24.8733 9.27075 19.3673
Pt 21.382 14.8685 5.60213
Au 23.517 11.0754 7.49138
Pt 23.4798 13.173 9.31367
Au 25.3268 11.1639 9.60295
Pt 23.4175 15.294 7.50309
Au 23.389 11.2732 11.4763
Pt 23.4771 13.1914 13.449
Au 25.4841 11.2182 13.4915
Pt 25.2533 13.168 11.4418
Au 23.3673 11.2833 15.4613
Pt 23.3706 13.1692 17.4783
Au 25.3788 11.1974 17.5273
Pt 25.2752 13.1335 15.5082
Au 23.1725 11.2308 19.4316
Pt 23.1576 13.1166 21.5273
Au 25.016 11.1219 21.4121
Pt 25.0587 13.1199 19.5566
Au 23.0793 11.1059 23.4237
Pt 21.0081 15.0879 25.1179
Pt 22.9918 15.1204 23.3479
Pt 21.5537 19.2089 6.16473
Au 22.6695 16.9936 5.03932
Au 23.4846 13.2381 5.82023
Pt 23.3656 17.1123 9.48403
Au 25.3851 15.1685 9.46461
Pt 24.0117 19.9071 9.09222
Au 23.468 15.0994 11.4313
Pt 23.3976 16.9407 13.4968
Au 25.5608 15.0891 13.4817
Pt 25.2575 17.1077 11.5462
Au 23.4434 15.0342 15.4684
Pt 23.2967 16.8971 17.4623
Au 25.465 15.0587 17.5513
Pt 25.2516 17.0114 15.517
Au 23.2525 15.0472 19.5054
Pt 23.0545 17.0181 21.4536
Au 25.1015 15.0975 21.5644
Pt 25.057 17.0315 19.5149
Au 23.6965 17.668 24.0236
Pt 19.0562 18.9871 23.3872
Au 21.7774 19.7204 24.0745
Pt 23.5779 19.6275 21.9879
Au 23.2387 21.1079 6.84868
Pt 21.2773 20.8825 11.5473
Au 23.9597 18.1914 7.0306
Au 23.3015 18.9856 11.5022
Pt 23.9021 21.6656 11.0799
Au 25.8646 17.9005 9.04971
Pt 21.9333 23.525 11.0019
Au 23.2527 18.8876 15.507
Pt 25.0354 18.94 17.5359
Au 26.8019 19.1587 15.5927
Pt 25.1147 19.0251 13.5486
Au 23.0389 18.8997 19.4407
Pt 23.6199 21.559 20.0263
Au 25.5901 17.8184 22.0366
Pt 25.4541 19.6232 20.0644
Au 21.837 21.7829 22.1032
Au 19.9824 25.5633 10.8532
Pt 23.6749 23.4565 13.0092
Au 25.9489 19.7949 11.06
Au 25.7419 21.6802 13.1073
Pt 23.0933 22.8876 15.5145
Au 25.6597 21.5141 18.1767
Pt 24.9475 21.0134 15.5998
Au 23.7483 23.5247 18.0975
