561
Atoms. Timestep: 20788
Pt 15.2324 8.54027 17.539
Au 10.6043 22.7415 8.41677
Pt 12.2627 9.92224 11.8893
Au 4.24967 16.757 17.7925
Pt 16.8807 9.83627 10.3877
Pt 10.5324 9.40153 14.2583
Au 22.4295 20.6012 7.99676
Pt 7.10668 18.559 19.9662
Au 4.70032 17.2769 20.5425
Pt 8.0257 14.8805 23.6954
Au 11.6079 11.6825 25.8253
Pt 11.7035 18.4208 15.2918
Au 10.7121 21.6284 5.17859
Pt 19.3955 12.568 22.9789
Pt 12.1048 22.0299 11.0351
Au 13.1985 12.7231 3.75839
Au 16.0834 3.26269 17.5404
Pt 11.4788 21.9487 14.8419
Au 22.7682 6.80767 10.3225
Pt 9.12053 18.1787 14.1557
Au 9.18627 15.7453 26.18
Pt 10.2231 21.5996 18.9065
Au 9.53374 23.5493 20.9431
Pt 12.5364 15.019 22.9364
Au 8.13103 23.6494 18.482
Pt 16.2323 14.0387 25.2836
Au 8.16389 21.1286 8.10008
Au 20.2169 10.0986 21.7772
Pt 10.4793 20.1601 7.30593
Au 8.00545 22.1476 22.8117
Pt 22.7329 20.2003 18.6416
Au 23.4658 9.46827 9.41526
Pt 6.59042 13.3597 18.5196
Au 21.4915 7.98361 8.33465
Au 8.49209 24.6711 15.3811
Pt 13.7152 15.7909 7.60354
Pt 14.4908 11.0694 13.3942
Pt 12.5665 7.73976 10.3626
Pt 18.6894 8.57003 14.9228
Pt 12.3787 14.4226 9.74848
Pt 18.9996 8.57704 12.2111
Pt 13.1267 20.1659 6.11626
Au 13.4524 3.63145 18.5952
Pt 19.7359 13.3979 9.9526
Au 19.9583 11.6701 5.59445
Pt 10.1807 18.9357 20.3132
Au 21.0107 14.8809 22.9086
Pt 19.3845 21.3355 11.7424
Au 4.4016 11.771 12.3019
Pt 24.0498 18.0664 18.1926
Au 7.43983 6.97744 12.2035
Pt 13.2557 8.50881 22.6438
Au 6.74891 23.3081 20.8225
Pt 6.46789 18.4355 17.1972
Au 26.6351 17.3067 18.1537
Pt 10.2259 11.5199 21.583
Pt 21.971 19.6816 10.5095
Pt 9.5817 14.5262 5.96877
Au 23.8574 11.2216 11.4617
Au 20.7948 4.46679 14.8363
Pt 20.0986 13.381 20.5892
Au 6.10218 7.68201 14.646
Pt 16.7348 22.2277 11.9445
Au 13.8476 24.4947 18.5365
Pt 7.35263 10.1144 15.9303
Au 22.7951 5.65399 16.6197
Pt 14.8282 24.7749 13.8173
Au 4.71428 19.4654 18.8904
Pt 13.7494 12.7956 24.112
Au 15.6648 8.58506 23.9689
Pt 24.2773 12.3755 15.9876
Au 4.9143 11.1903 17.757
Pt 17.0193 16.4358 25.967
Au 21.9588 10.6555 7.34299
Pt 18.6724 16.8063 21.9554
Au 13.0515 19.5378 26.3275
Pt 16.8471 9.69635 13.2141
Au 21.4823 7.52161 21.6045
Pt 13.3513 9.59386 15.4695
Pt 12.4019 19.3229 10.8959
Au 7.21262 18.3691 7.78444
Au 4.43828 18.2973 15.3703
Pt 12.447 17.5699 24.3246
Au 17.664 24.6397 7.88173
Pt 10.2238 13.4886 11.2767
Au 17.5414 17.5288 15.5516
Pt 10.1225 7.16511 18.2823
Au 8.39511 9.35617 7.84497
Pt 7.0418 18.1972 12.4736
Au 13.0681 18.0663 3.18931
Pt 13.9649 6.46976 18.9373
Au 17.3446 21.2821 24.2183
Pt 10.0697 15.8442 10.2379
Au 10.92 24.4158 10.6804
Pt 9.19222 11.6547 14.6393
Au 16.1116 4.64002 9.37289
Pt 11.8979 11.5598 13.9177
Au 16.1221 25.9522 17.808
Pt 23.911 15.3291 12.4988
Au 18.7476 26.0208 16.9754
Pt 8.98717 12.2401 17.152
Au 20.1052 23.7882 15.9399
Au 15.0067 27.2232 12.913
Pt 16.5915 7.24309 19.4632
Au 17.2758 22.1614 6.53625
Pt 17.4452 11.9902 6.77119
Au 5.29414 18.1981 10.4135
Pt 9.86653 14.3804 21.6274
Au 6.38343 23.2734 16.3515
Pt 9.00196 19.0049 18.0532
Au 6.02773 11.9601 20.6685
Pt 6.57031 11.4872 13.7888
Au 10.981 16.865 17.6155
Pt 9.86005 13.6874 8.49138
Au 11.2372 24.9787 15.7192
Pt 9.70309 5.28388 16.2717
Au 14.0408 12.9187 26.7308
Pt 10.0349 9.44467 19.7454
Au 7.89985 9.97704 21.2927
Au 7.78022 9.13744 10.5091
Pt 23.2305 21.2913 14.511
Au 15.1269 24.0652 6.91791
Au 17.2422 23.8612 16.264
Pt 6.61224 16.8203 14.5572
Au 12.7008 24.1644 22.9658
Pt 18.546 19.5029 13.7784
Au 15.2959 20.9508 26.0589
Pt 11.4312 15.9587 12.4157
Au 27.2962 16.0091 15.7115
Pt 19.0967 7.98805 20.0674
Au 8.51819 22.8036 10.3384
Au 14.8813 10.7724 22.4728
Pt 16.1182 5.96489 17.1779
Pt 14.6976 8.61671 12.1838
Pt 11.2457 5.25566 19.8082
Pt 11.5185 11.2093 16.4439
Pt 10.8595 13.1419 23.6299
Pt 14.5853 8.89676 20.1868
Pt 9.91542 6.65325 13.8094
Pt 8.68278 15.8568 12.7708
Pt 10.329 15.9489 23.8675
Pt 17.9831 21.9946 14.2581
Pt 11.0695 14.5278 19.3396
Au 4.72092 14.5468 20.0985
Au 10.9203 24.4577 18.4776
Pt 16.8114 5.20776 14.6259
Au 16.0059 2.71601 14.7373
Pt 14.8913 13.5063 10.3726
Au 5.61558 9.29166 12.3975
Pt 12.5771 7.87697 13.5557
Au 17.7082 12.4644 4.16527
Pt 16.111 25.1221 11.455
Au 7.88541 12.418 22.7602
Pt 9.16786 16.5996 19.6006
Au 12.8841 20.7831 3.62388
Pt 20.5925 12.3345 17.6134
Au 23.3685 16.2187 22.2507
Pt 13.2355 21.6389 22.2475
Au 9.50995 16.612 4.02288
Pt 12.1023 5.38332 14.6687
Au 16.6363 26.5115 15.127
Pt 8.13319 13.3002 12.7311
Au 10.5702 3.36985 18.0793
Pt 20.541 21.3307 14.3992
Pt 14.7357 20.8266 10.4247
Au 23.8606 8.5018 12.11
Au 12.5222 26.4065 13.7291
Pt 21.4041 9.12801 11.1699
Au 8.45229 19.7871 5.64916
Pt 6.47523 12.618 16.1002
Au 23.8776 15.4302 7.32617
Pt 9.65754 9.62702 17.2011
Au 20.6155 4.45215 17.5829
Pt 16.1352 7.78127 15.0402
Au 18.4779 16.3386 19.1236
Pt 6.07144 14.2309 14.0159
Au 20.7337 14.8773 18.258
Pt 11.1499 15.7646 7.74075
Au 23.8222 20.965 21.0682
Pt 7.75106 16.9967 10.3039
Au 15.9333 3.99166 12.2085
Pt 21.1421 20.6784 21.1078
Au 10.7097 11.9402 4.8729
Pt 10.0386 22.5292 12.6178
Au 10.5699 22.7564 23.7476
Pt 22.6966 13.9682 20.9088
Pt 10.1734 8.07442 11.7379
Au 10.8783 14.3222 3.65186
Au 11.3065 3.28584 11.6416
Pt 10.4686 16.1169 15.0062
Au 13.5823 15.391 20.3085
Pt 9.67046 17.5828 6.45729
Au 15.3547 12.3934 20.2789
Pt 9.7074 10.8997 11.9797
Au 16.796 13.396 27.7136
Pt 19.1643 10.8963 13.906
Au 13.7421 12.7092 15.6583
Pt 19.3732 10.4682 19.1072
Au 13.1268 18.0336 13.1741
Pt 17.8656 11.3988 21.1381
Au 15.1074 13.8294 13.4227
Pt 20.1745 20.5988 18.6252
Au 23.6584 22.3327 9.94997
Pt 8.04596 21.0861 19.9839
Au 20.5507 10.6181 24.4448
Pt 14.2328 17.1487 22.5067
Au 4.70869 10.0686 15.0934
Pt 22.6391 18.3812 20.5227
Pt 16.0681 23.1183 9.48999
Au 19.6228 17.5158 4.50388
Au 18.3343 25.6626 19.6657
Pt 7.67418 21.086 17.2534
Au 24.4034 11.8484 20.526
Pt 18.843 21.2613 16.5313
Au 5.7211 8.56099 17.2858
Pt 8.44591 15.9181 8.08123
Au 5.76086 15.8813 8.86334
Pt 13.4645 23.5317 15.6681
Au 17.273 9.08077 7.57369
Pt 9.01607 11.5195 9.47468
Au 26.0683 21.2114 13.7856
Pt 15.9596 19.6396 6.35149
Au 9.01363 20.3753 24.6406
Pt 15.429 22.2397 14.3191
Au 13.0387 15.3145 14.646
Pt 9.93412 18.166 11.6321
Au 26.8129 13.3321 15.8871
Pt 21.787 11.579 19.9666
Au 18.1951 5.02487 18.6969
Pt 10.0786 20.6265 10.268
Au 19.1247 7.84867 22.9042
Au 14.9273 15.3593 27.5812
Pt 10.4608 21.0894 21.7441
Au 18.1731 20.0152 4.80444
Pt 11.0373 20.0191 13.1305
Au 13.6573 3.9104 10.512
Pt 20.2497 16.1144 15.889
Au 17.9191 26.377 9.9036
Pt 14.3656 23.1681 11.6911
Au 3.93272 15.5578 15.1691
Pt 15.0385 17.9616 25.0779
Au 26.1427 21.6422 11.0093
Pt 13.5636 20.9098 12.9599
Au 22.1774 22.9163 22.1108
Pt 21.1562 17.7968 18.1206
Au 12.7744 16.9044 26.9243
Pt 9.7171 20.1289 15.765
Au 8.58548 11.832 6.62644
Au 5.76871 22.0515 13.9892
Pt 21.9186 21.9203 12.219
Pt 12.8783 9.87904 8.44713
Pt 21.7668 16.7336 11.3947
Pt 8.80196 14.6958 17.9486
Pt 16.8501 6.91433 12.559
Pt 7.42854 10.5653 18.6086
Pt 16.7342 12.613 23.2396
Pt 16.2632 16.8004 7.31602
Pt 18.6455 6.14674 16.1774
Pt 19.7074 18.6109 11.3784
Pt 16.5154 16.1191 23.4532
Pt 12.6274 12.9131 21.3023
Pt 18.0107 8.43056 17.4934
Au 15.4317 19.4957 3.71134
Au 25.3678 17.3101 8.72796
Pt 20.1283 6.73129 10.7383
Au 6.26453 21.5411 11.3359
Pt 12.5225 20.7405 8.71513
Au 18.4144 3.4581 16.1637
Pt 22.7877 8.30491 17.0993
Au 14.9533 21.9407 5.00473
Pt 15.7953 14.0765 7.86914
Au 15.4966 16.6288 13.7014
Pt 15.0234 14.3055 22.3058
Au 25.3575 14.5187 20.1304
Pt 19.4145 11.2093 8.29869
Au 9.26219 7.02337 9.38999
Pt 12.5243 10.3327 20.6167
Au 21.9551 13.3712 6.67782
Pt 19.976 17.2176 13.6061
Au 27.0651 18.8301 14.8351
Pt 15.7724 19.4948 13.5771
Au 18.494 3.48615 13.4227
Pt 17.4128 19.1087 20.4117
Pt 22.1442 13.9529 15.8377
Au 19.9188 14.3845 4.79021
Au 13.35 13.4005 18.4129
Pt 17.2627 12.468 9.41892
Au 4.3406 17.0864 12.8421
Pt 14.2477 17.819 5.62738
Au 18.2598 4.83929 10.988
Pt 12.198 18.1627 7.41349
Au 14.3927 10.9392 10.5984
Pt 8.53623 7.76515 15.7936
Au 25.7316 12.2637 18.2354
Pt 14.9527 8.39708 9.35429
Au 18.1998 14.6319 16.8988
Pt 21.5537 9.05035 19.3602
Au 17.664 14.3398 21.3067
Pt 8.13059 19.5973 22.1649
Au 9.52947 10.7041 24.223
Pt 14.8155 19.3172 20.7728
Au 23.7514 7.57301 14.7808
Pt 18.3918 11.0981 16.6459
Au 7.91755 17.6178 24.5506
Pt 12.1822 10.8586 23.2168
Pt 16.8795 20.3296 8.75738
Au 14.3355 8.36799 6.71818
Au 15.3082 23.0353 23.7858
Pt 17.001 17.4475 4.99494
Au 20.9557 18.7417 6.68594
Pt 14.7454 6.27304 10.9661
Au 15.2163 25.6914 9.06064
Pt 13.349 23.4556 9.17672
Au 9.34323 6.79392 20.9544
Pt 14.7125 15.3229 5.22809
Au 15.6885 15.0947 15.9815
Pt 19.8942 18.57 20.2649
Au 16.6096 23.6088 19.1982
Pt 11.2784 16.6588 21.275
Au 17.8844 5.91603 21.4196
Pt 22.8756 10.8706 17.661
Au 13.2203 15.3401 2.94267
Pt 8.4633 14.358 15.3008
Au 22.1013 24.3472 11.21
Pt 18.6277 14.8144 24.1904
Au 4.12141 13.8737 17.439
Pt 14.4612 20.0282 23.6972
Pt 14.783 21.5447 7.76094
Au 23.6933 18.227 6.73399
Au 19.3546 17.5401 27.0047
Pt 19.1116 23.0742 18.4682
Au 15.9738 11.2877 25.5333
Pt 18.3291 18.7463 7.13734
Au 26.8858 14.5349 13.2643
Pt 13.538 12.7055 8.11748
Au 10.3926 18.2325 25.8978
Pt 17.9326 15.2308 9.03649
Au 5.66699 22.0267 18.7686
Pt 19.1135 11.0382 11.1106
Au 9.07453 13.1439 25.5002
Pt 8.38773 20.5043 12.6244
Au 13.9583 10.8548 18.1325
Pt 13.595 20.6021 15.5799
Au 3.83389 14.3856 12.5537
Pt 9.93353 18.2416 9.00243
Au 7.3742 16.2804 5.72794
Pt 10.6621 13.8014 13.8674
Au 26.4703 19.0449 11.8775
Pt 16.6892 12.0777 11.9844
Pt 19.2963 8.94799 9.48517
Au 4.91398 19.7385 12.9382
Au 25.0914 9.78429 16.6289
Pt 11.1529 11.7674 7.52526
Au 22.3845 23.9712 14.2454
Pt 7.77435 14.0741 10.0997
Au 24.6975 19.7872 9.37158
Pt 11.6524 19.6256 17.5636
Au 6.94974 13.878 7.33649
Pt 18.6363 21.5761 20.6699
Au 21.9195 22.7896 19.371
Pt 14.6031 21.86 19.6399
Au 23.5667 12.8966 8.88362
Pt 15.0008 18.247 11.2119
Au 15.5072 16.7755 2.93472
Pt 12.3333 23.7728 13.1868
Au 23.0126 9.75215 21.6578
Pt 11.6645 20.2752 24.1502
Au 11.5858 6.38651 22.7157
Pt 17.2521 19.8527 11.3009
Au 11.7372 14.5144 25.868
Pt 12.5189 22.1651 17.6777
Pt 13.8141 7.02511 16.0437
Pt 20.8992 16.1331 20.5833
Pt 8.24839 16.8633 21.9498
Pt 15.3918 10.8863 8.01931
Pt 11.1328 11.8042 18.927
Pt 21.5436 11.4059 9.85163
Pt 11.7718 11.7757 10.0967
Pt 14.3209 4.42425 15.9236
Au 15.8392 25.8675 20.5335
Pt 22.1021 13.769 11.1295
Au 13.1859 10.7706 5.80817
Pt 12.1029 5.51669 17.3553
Au 22.0026 6.54657 12.907
Pt 20.5217 9.56098 16.6933
Au 7.66581 7.9062 19.0486
Pt 7.3779 14.5055 20.8827
Au 16.3148 6.57984 7.53035
Pt 6.26911 15.3146 16.5982
Au 23.9367 10.2286 14.1921
Pt 24.6502 14.8814 14.9243
Au 9.39876 5.21953 11.5574
Pt 15.3517 16.133 9.67695
Au 19.5416 26.0463 14.3786
Pt 18.1643 12.8936 18.93
Au 24.3749 22.2375 18.2023
Pt 24.0702 17.8681 11.3855
Pt 18.4658 23.9455 11.023
Pt 6.95573 11.568 11.2318
Au 19.7472 9.08667 6.61451
Au 19.0537 6.60062 8.13948
Pt 14.5049 5.99652 13.5786
Au 25.215 20.2552 16.468
Pt 12.1271 5.76022 12.0639
Au 22.8036 6.64127 19.2592
Pt 8.75816 12.5645 19.8174
Au 25.2504 17.4066 20.5976
Pt 20.9769 7.13642 15.3666
Au 15.9386 10.379 15.7349
Pt 16.1745 21.2975 21.7646
Au 18.0582 15.244 14.0761
Pt 16.6989 10.2804 18.9484
Au 16.1375 16.7576 20.7533
Pt 24.036 20.4787 11.9406
Au 27.4071 14.6423 18.2423
Pt 8.33722 22.0683 14.7196
Au 17.6965 27.0343 12.5845
Pt 12.4143 20.4989 19.9001
Au 8.61339 5.06192 18.8842
Pt 10.1513 18.4074 23.0935
Pt 17.285 7.20168 10.0395
Au 5.91237 18.3142 22.7243
Au 10.6647 9.50816 6.37439
Pt 12.5647 17.0522 9.83174
Au 10.0134 25.1926 13.1954
Pt 18.9897 16.2499 6.74958
Au 19.8789 21.3078 6.85508
Pt 17.3625 23.6267 21.7752
Au 15.9852 14.8208 18.8711
Pt 21.718 11.3569 15.235
Au 16.0237 12.5838 17.3444
Pt 20.9806 22.2015 9.74348
Au 19.0448 14.7182 26.8952
Pt 16.4882 20.1025 16.0266
Au 24.3073 9.25843 19.2757
Pt 15.0528 12.7471 5.70929
Au 23.7323 18.8431 22.888
Pt 14.4355 19.838 17.9824
Au 11.4728 8.69514 24.7654
Pt 18.9336 17.639 24.3967
Au 26.3097 16.135 10.9773
Pt 11.9793 16.3939 5.23807
Pt 23.2763 12.9891 13.5438
Au 6.97605 6.07314 16.9879
Au 20.7033 4.39477 12.0309
Pt 21.1024 17.9224 22.691
Au 6.53445 11.4987 8.59838
Pt 20.3944 7.08977 17.9537
Au 14.4327 18.0194 15.8058
Pt 19.0977 13.2758 12.5162
Au 17.1169 12.637 14.7097
Pt 21.7108 19.2562 13.1766
Au 15.9746 17.622 18.0961
Pt 7.01284 19.6506 14.8601
Au 13.4836 15.8949 17.3797
Pt 20.0033 23.6592 13.0949
Au 18.4836 12.2912 25.662
Pt 19.9902 17.2383 9.01566
Au 20.0519 26.0394 11.6518
Pt 17.0167 20.9472 18.611
Au 15.6588 13.9227 3.17978
Pt 16.9076 14.827 11.535
Au 5.0343 20.7809 16.3841
Pt 12.3862 8.73986 18.0668
Au 20.1631 24.6994 9.13544
Pt 10.5517 9.40718 9.50677
Au 19.6546 22.3447 23.159
Au 24.4266 23.1531 12.6088
Pt 14.5768 18.6757 8.52544
Au 15.7554 4.62908 19.9293
Pt 6.18266 15.4973 11.7384
Au 13.3614 25.6477 11.1979
Pt 9.89896 22.7548 16.6535
Au 12.9901 17.8506 19.3234
Pt 14.6851 23.7447 21.2952
Au 13.063 22.279 25.0608
Pt 17.4804 24.4579 13.5971
Au 11.6073 7.45373 7.79894
Pt 8.45906 16.9262 16.531
Au 7.60828 23.7247 12.7652
Pt 12.7953 13.1919 12.1878
Pt 18.5183 22.3181 9.03502
Pt 19.4447 15.7109 11.2758
Pt 8.10382 9.254 13.4085
Au 19.7296 20.1778 25.2461
Pt 23.8204 15.472 9.93356
Au 3.98948 12.7152 14.8931
Pt 12.071 7.63252 20.4251
Au 13.8058 5.95475 8.40764
Pt 12.3483 13.8608 6.0812
Au 21.621 16.1726 6.14811
Pt 24.4049 19.0133 13.9677
Au 17.3509 16.1484 28.4791
Pt 18.4481 18.7685 17.8068
Pt 14.1485 15.4747 24.9349
Pt 19.7477 13.2028 15.1645
Au 5.16776 13.4322 10.203
Pt 21.3612 9.12897 13.8113
Au 21.7762 18.4656 25.17
Pt 19.3791 13.7283 7.36155
Au 22.1277 12.1371 22.7651
Pt 11.2387 7.65925 15.9702
Au 20.9461 13.2653 25.1609
Pt 23.2045 15.9465 19.3255
Au 11.3719 5.2586 9.55134
Pt 25.0241 15.0621 17.4534
Au 13.4552 3.36906 13.3889
Pt 21.3168 11.5925 12.5614
Au 17.3336 19.1711 26.0792
Pt 12.4641 18.9833 21.9884
Au 13.3504 4.92143 21.2136
Pt 17.2214 14.5837 5.74775
Au 21.9016 20.671 23.638
Pt 23.1388 13.4091 18.3366
Pt 25.0281 17.4117 15.931
Pt 19.2209 6.22009 13.4615
Au 20.4097 5.52923 20.202
Au 17.932 15.4998 3.3494
Pt 25.7922 16.9063 13.4485
Au 15.1838 6.73445 21.8665
Pt 19.6296 19.9141 9.14934
Au 15.3629 18.0588 27.6664
Pt 22.5656 17.667 8.92501
Au 17.9457 10.1967 23.8195
Pt 21.1552 14.7723 13.4091
Au 15.9919 10.2451 5.32509
Pt 11.1665 13.9544 16.5749
Au 12.0039 3.00931 15.882
Pt 21.7482 21.6542 16.7171
Au 10.3484 8.84415 22.371
Pt 12.1563 23.1114 20.3968
Au 25.3127 13.4823 11.1404
Pt 16.6831 18.7458 23.0535
Au 7.67605 5.33598 14.4105
Pt 22.7603 16.2585 16.6873
Au 13.9957 26.1083 16.0559
Pt 13.9179 15.6487 11.764
Au 10.9597 19.0035 4.59287
Pt 17.4414 17.8212 9.61092
Au 22.7427 24.1166 16.9653
Au 12.658 22.8515 6.53893
Pt 22.6983 19.0789 16.0592
Au 25.5523 19.8956 19.2756
Pt 7.68865 19.5972 10.211
Au 20.7857 25.1452 18.5124
Pt 17.5169 17.3966 12.3005
Au 19.9702 23.9979 20.9865
Pt 21.4221 15.0718 8.78106
Au 13.7167 10.0153 25.2353
Pt 15.27 22.3345 17.0878
Au 20.9386 16.0034 25.3565
Pt 6.65059 16.1941 18.9916
Au 25.8155 12.1202 13.5994
Au 16.9764 8.91148 21.5656
Pt 19.0808 19.7212 22.6205
Au 5.72853 20.6707 21.253
Au 24.8202 23.0056 15.57
Pt 22.688 16.9482 14.1509
Au 10.0437 3.81765 13.9623
Pt 20.1709 18.9556 15.7928
Au 5.71548 15.6457 22.5517
