561
Atoms. Timestep: 20119
Pt 7.03527 7.33928 14.7966
Au 5.28759 7.1532 12.8074
Pt 7.10058 11.0392 10.7638
Au 4.91822 9.21143 14.7043
Pt 5.13578 11.0865 12.6679
Pt 5.09947 11.0569 16.7431
Au 3.48038 13.3505 8.91485
Pt 5.36437 15.2635 8.83602
Au 3.21137 13.2258 12.6161
Pt 3.57059 15.2221 10.8315
Au 3.29377 15.0298 18.735
Pt 3.47175 15.0417 14.7913
Au 5.17593 7.349 16.7458
Pt 5.1751 14.9351 16.8461
Pt 7.0235 10.9708 18.8174
Au 5.34019 13.3125 6.92117
Au 2.88859 17.7843 10.1947
Pt 6.89621 17.8116 6.55042
Au 3.19511 17.0001 12.8881
Pt 5.35759 17.1095 10.9172
Au 3.20634 16.9821 16.7559
Pt 5.21193 16.998 14.8627
Au 7.16864 16.5603 24.6706
Pt 5.17672 16.9071 18.8304
Au 5.04855 14.9261 20.8881
Pt 7.10812 14.7461 22.7085
Au 4.74866 17.8629 8.19246
Au 2.94506 19.6781 12.1588
Pt 4.89887 19.6744 10.3039
Au 3.43984 18.9568 18.7157
Pt 5.34059 18.8849 16.8311
Au 5.19367 18.8196 20.8601
Pt 5.44822 20.7748 18.8214
Au 3.3716 19.0864 14.8517
Au 3.60613 20.9899 16.8444
Pt 5.48467 20.9042 14.8914
Pt 9.07595 7.33892 12.8615
Pt 7.28389 7.20356 10.9719
Pt 7.05171 9.14081 16.7879
Pt 9.51505 6.31216 15.2916
Pt 9.57208 8.21116 17.413
Pt 5.24731 13.0806 10.8203
Au 7.04045 8.99382 8.77488
Pt 9.18282 9.14594 6.98948
Au 5.15867 9.08058 10.8325
Pt 7.05944 9.193 12.8052
Au 7.3862 5.34736 13.1052
Pt 9.01786 9.14012 10.7727
Au 7.68008 6.26415 17.2756
Pt 7.01681 11.0325 14.8004
Au 9.00511 9.11494 14.8578
Pt 9.03144 11.0262 12.7946
Au 7.43452 8.11053 19.3665
Pt 9.5845 6.37961 19.3198
Au 11.4148 4.43132 19.2927
Pt 9.52097 9.9501 19.5324
Pt 11.526 9.93775 21.3967
Pt 9.06378 13.0837 6.85423
Au 11.0779 9.11848 5.0232
Au 5.13916 11.1499 8.84152
Pt 7.12994 13.1049 8.85649
Au 8.99585 11.0859 8.7864
Pt 11.1798 14.9505 6.88386
Au 4.92573 12.8243 14.7308
Pt 5.25905 15.0311 12.8453
Au 7.07297 12.9501 12.8358
Pt 9.03949 12.9826 10.8373
Au 3.19146 13.117 16.7704
Pt 6.93613 12.9316 16.8614
Au 9.00419 10.9893 16.9293
Pt 8.98067 12.8995 14.8897
Au 4.89954 12.7556 18.9292
Pt 6.94917 12.8404 20.7987
Au 9.58658 11.9786 21.4048
Pt 8.9201 12.8526 18.8785
Au 5.02519 9.25784 18.6616
Pt 7.79958 12.1371 23.2671
Au 9.62115 11.8766 25.3183
Pt 11.6293 11.8495 23.4185
Pt 7.31017 15.1854 6.93284
Au 7.08143 11.1262 6.81072
Au 9.16794 14.9792 8.85129
Pt 7.30899 17.0706 8.99046
Au 11.2468 16.8662 8.90986
Pt 9.33343 17.0301 6.98099
Au 7.16486 15.0201 10.8602
Pt 7.19578 16.9195 12.9187
Au 9.11613 14.9047 12.9072
Pt 9.20223 16.8987 10.9029
Au 7.03926 14.8857 14.8862
Pt 7.09656 16.8458 16.8857
Au 9.01138 14.8246 16.9283
Pt 9.10671 16.7837 14.9571
Au 6.93055 14.8226 18.9155
Pt 7.04928 16.8045 20.9219
Au 8.99536 14.7465 20.8678
Pt 9.01777 16.7245 18.9474
Au 7.73481 13.9392 25.2489
Pt 9.69712 13.9517 23.4375
Au 9.73725 15.8131 25.56
Pt 9.09613 16.6384 22.8837
Au 8.68555 17.7845 4.5205
Au 8.61846 19.9129 6.30174
Pt 6.8133 19.7257 8.41443
Au 9.31728 18.9864 8.93998
Pt 8.86016 21.6138 8.4851
Au 7.36438 19.036 10.9817
Pt 5.38531 18.9343 12.9271
Au 9.27414 18.7879 12.9553
Pt 9.35821 20.9385 11.0126
Au 7.2745 18.8645 14.9032
Pt 7.37254 20.7534 16.9454
Au 9.21121 18.719 16.9841
Pt 9.35117 22.6202 16.9786
Au 7.1748 18.7552 18.925
Pt 7.27578 20.6396 20.859
Au 9.1057 18.6617 20.9533
Pt 9.1744 20.7676 19.0023
Au 7.11466 18.7233 22.9126
Au 9.14969 18.547 24.8984
Pt 9.23893 20.4921 22.9214
Au 6.76401 21.7762 10.3218
Au 4.87588 21.5952 12.3347
Pt 7.40371 20.9523 12.9412
Au 11.2983 20.7617 13.0292
Pt 9.4326 22.8513 13.0323
Au 9.30806 20.7934 14.948
Pt 5.6986 22.665 16.9063
Au 7.56595 24.611 17.0155
Pt 7.50738 22.7721 14.978
Au 7.23544 22.8074 19.1125
Au 9.16521 22.6518 21.1676
Pt 9.47232 24.2822 18.9646
Pt 11.0096 7.28353 10.869
Pt 15.0098 8.9775 8.81849
Pt 11.4543 6.21961 13.3029
Pt 13.4489 6.19443 11.3173
Pt 11.3798 6.19137 17.3174
Pt 13.4295 6.10653 15.3342
Pt 11.5026 6.25269 21.2691
Pt 13.4672 6.10459 19.4382
Pt 11.5812 8.05121 23.2126
Pt 11.0903 11.0705 6.95676
Au 11.12 7.07453 6.96532
Au 9.07544 6.99825 8.88351
Pt 10.9939 9.10607 8.8705
Au 11.2769 5.23383 9.23574
Pt 12.9889 11.0598 5.0675
Au 9.35645 5.23734 11.2351
Pt 11.0019 9.10414 12.8372
Au 13.516 8.0046 13.392
Pt 13.0035 9.04681 10.8728
Au 11.5398 8.07937 15.3672
Pt 11.5617 10.0007 17.4647
Au 13.4837 7.92178 17.3961
Pt 13.5754 9.9509 15.4734
Au 13.3774 4.41246 17.3607
Pt 11.5604 8.06645 19.3852
Au 9.39276 7.97206 21.5161
Pt 13.5204 9.93563 19.4484
Au 7.44745 10.1054 21.4324
Pt 9.63212 10.0467 23.2785
Au 15.4566 9.65566 25.4064
Pt 13.5292 9.84394 23.4332
Pt 11.0958 13.0061 5.06911
Au 14.9727 9.10632 4.89501
Au 9.19175 11.1012 5.01769
Pt 11.0449 12.9809 8.81655
Au 13.0473 11.0013 8.86249
Pt 13.0816 12.9975 6.85599
Au 11.0231 11.0525 10.8401
Pt 11.0324 12.9097 12.8931
Au 13.0522 10.9327 12.9039
Pt 13.0675 12.8906 10.8791
Au 11.0322 10.9799 14.8889
Pt 10.9866 12.8498 16.8984
Au 13.5768 11.9201 17.4691
Pt 13.0351 12.8256 14.9086
Au 11.5517 11.9402 19.4454
Pt 11.6072 13.8644 21.5416
Au 13.5596 11.8612 21.515
Pt 13.604 13.8404 19.5547
Au 11.5146 9.83628 25.252
Pt 11.5894 13.7346 25.3408
Au 13.4909 11.7699 25.5589
Pt 13.5945 13.7748 23.59
Pt 11.2284 17.0065 5.08256
Au 13.0359 14.8935 4.71724
Au 9.22442 15.0662 4.93583
Pt 11.2626 18.9439 7.0425
Au 13.1512 14.8416 8.86962
Pt 13.2229 16.7853 6.83541
Au 11.1237 14.8532 10.9064
Pt 11.1746 16.7364 12.9622
Au 13.1013 14.7711 12.9339
Pt 13.1876 16.7119 10.9519
Au 11.0608 14.8042 14.9417
Pt 11.1077 16.7019 16.9814
Au 13.0605 14.7151 16.9623
Pt 13.1351 16.6684 14.9792
Au 11.0323 14.7382 18.9335
Pt 11.0563 16.6236 20.9494
Au 13.6506 15.7517 21.5899
Pt 13.0786 16.6237 18.9774
Au 11.7033 15.7915 23.5957
Pt 11.7374 17.7161 25.4247
Au 13.6117 15.6438 25.7541
Pt 13.7118 17.6511 23.6563
Pt 10.8321 21.5339 6.58599
Au 12.8057 21.5229 4.64114
Au 10.7204 19.6877 4.47876
Pt 11.3966 20.8268 9.1002
Au 13.2915 18.7096 8.95744
Pt 13.3528 20.8191 7.19932
Au 11.2627 18.7696 10.9934
Pt 11.3468 22.6707 15.0669
Au 13.2274 18.6466 13.0207
Pt 15.393 22.6042 11.1501
Au 11.2122 18.6594 14.9912
Pt 11.2413 20.6464 16.9747
Au 13.1595 18.6039 16.9899
Pt 13.2531 20.6508 15.0335
Au 11.1196 18.6702 19.0049
Pt 11.1352 20.6206 21.0488
Au 13.1266 18.5373 20.9952
Pt 13.2125 20.513 18.971
Au 11.1187 18.5209 22.9233
Pt 11.2815 20.3274 24.809
Au 13.781 19.5334 25.7419
Pt 13.1896 20.398 23.0363
Au 12.825 23.4473 6.64642
Au 8.87575 23.6113 10.4528
Pt 11.4427 22.7095 11.1259
Au 11.0707 25.2572 10.5012
Pt 10.9066 23.3737 8.58651
Au 13.3437 20.7058 11.0575
Pt 11.5007 24.5358 13.1089
Au 13.3888 22.6452 13.1203
Pt 13.5176 24.5294 11.2212
Au 9.52583 24.7312 15.063
Pt 11.3799 24.4372 17.0744
Au 13.3018 22.5529 17.0363
Pt 13.3665 24.4679 15.1052
Au 11.2915 22.457 19.0105
Pt 11.411 24.1608 20.9793
Au 13.2639 22.321 21.0189
Pt 13.3132 24.3011 19.0779
Au 11.174 22.5068 23.1507
Au 13.2644 22.2687 25.0514
Pt 13.4103 24.0396 22.9588
Pt 13.0167 9.07412 6.88372
Pt 15.5572 6.32083 9.53937
Pt 17.3534 6.50464 7.64484
Pt 15.4806 6.11545 13.4054
Pt 17.5157 6.17623 11.4501
Pt 15.4767 6.0311 17.4225
Pt 17.4654 6.0444 15.4416
Pt 15.3939 6.06155 21.2848
Pt 17.4031 6.02334 19.4085
Pt 15.4403 7.87229 23.3002
Pt 19.2788 7.77882 23.2167
Pt 16.9672 11.0294 5.02011
Au 14.8421 6.98878 6.81703
Au 13.7838 4.89312 8.36183
Pt 12.9834 7.28846 8.90441
Au 17.553 8.207 9.50983
Pt 16.9156 8.98383 6.86356
Au 15.52 8.07236 11.4878
Pt 15.5757 9.95522 13.5049
Au 17.5067 7.94098 13.4776
Pt 17.5827 10.0057 11.5221
Au 15.4961 7.90832 15.4326
Pt 15.5158 9.87857 17.4581
Au 17.4897 7.87917 17.4453
Pt 17.5362 9.86748 15.5037
Au 15.4622 7.94494 19.3879
Pt 13.4977 8.04109 21.3459
Au 17.3181 5.8478 23.1525
Pt 17.3776 7.91535 21.3572
Au 13.4465 6.06237 23.1685
Pt 15.4747 9.87169 21.4735
Au 17.4605 7.7229 25.1865
Pt 17.4282 9.77787 23.4039
Pt 15.0075 12.8569 4.95966
Au 17.1483 14.6598 4.69861
Au 15.0179 10.9674 6.86581
Pt 15.0716 12.8909 8.81523
Au 17.0354 10.8982 8.88892
Pt 17.0589 12.8628 6.87185
Au 15.0463 10.9064 10.8849
Pt 15.0654 12.7939 12.9085
Au 17.6136 11.8886 13.5176
Pt 17.0743 12.7777 10.8973
Au 15.5928 11.8852 15.4959
Pt 15.6207 13.8275 17.5358
Au 17.5734 11.8435 17.505
Pt 17.6512 13.8019 15.5457
Au 15.5466 11.8714 19.5023
Pt 15.576 13.7535 21.6318
Au 17.5206 11.7976 21.5419
Pt 17.6062 13.7369 19.5618
Au 15.5218 11.7546 23.6053
Pt 15.5385 13.6647 25.4723
Au 17.4983 11.645 25.6279
Pt 17.5595 13.6724 23.6646
Pt 13.2208 18.8989 5.20947
Au 15.175 16.8212 4.70129
Au 15.132 14.8548 6.71422
Pt 15.169 16.6898 8.85691
Au 17.0842 14.7628 8.88749
Pt 17.1334 16.6913 6.75129
Au 15.1161 14.7561 10.917
Pt 15.1476 16.6424 12.9894
Au 17.1073 14.6604 12.9626
Pt 17.1539 16.6067 10.9978
Au 15.088 14.6854 14.9599
Pt 15.1008 16.5925 16.9772
Au 17.6655 15.6909 17.5646
Pt 17.1293 16.5652 14.9796
Au 15.6525 15.6988 19.5866
Pt 15.7007 17.5865 21.6442
Au 17.6328 15.6051 21.6498
Pt 17.7137 17.5699 19.6082
Au 15.6247 15.6423 23.7031
Pt 15.6829 17.5138 25.5679
Au 17.6312 15.5109 25.8012
Pt 17.6838 17.4579 23.7296
Pt 15.3298 20.9429 5.42017
Au 15.1823 19.2347 3.50746
Au 15.2582 18.6897 6.92214
Pt 17.3427 22.6362 9.1867
Au 17.1778 18.543 9.02637
Pt 17.2874 20.655 7.23217
Au 15.2291 18.5937 11.0286
Pt 15.2786 20.6175 13.0645
Au 17.1825 18.5526 13.0313
Pt 17.2506 20.5746 11.0638
Au 15.1761 18.5914 15.0124
Pt 15.221 20.5241 17.0184
Au 17.1643 18.4703 17.007
Pt 17.2319 20.4962 15.0527
Au 15.1542 18.4761 18.9966
Pt 15.2106 20.3354 20.9886
Au 17.7548 19.4326 21.6296
Pt 17.2032 20.3636 19.0057
Au 15.7695 19.4353 23.6889
Pt 15.8387 21.3683 25.474
Au 17.7518 19.3796 25.8149
Pt 17.8174 21.324 23.6047
Pt 15.405 22.743 7.33292
Au 17.4244 22.6654 5.45179
Au 15.3174 20.7003 9.08949
Pt 13.4238 22.7851 9.21139
Au 19.3534 24.5286 9.31915
Pt 19.2966 22.5188 7.37997
Au 15.4597 24.6594 9.28515
Pt 15.4029 24.449 13.1546
Au 17.3107 22.4937 13.134
Pt 17.3858 24.3834 11.2401
Au 15.3286 22.5577 15.1073
Pt 15.3473 24.3465 17.1189
Au 17.2939 22.4293 17.0794
Pt 17.392 24.3201 15.1316
Au 15.2758 22.4251 19.0392
Pt 15.3198 24.1741 21.0771
Au 17.2718 22.231 21.0029
Pt 17.3468 24.203 19.1081
Au 15.2708 22.1455 22.9541
Pt 15.4051 23.9046 24.747
Au 17.8381 23.1819 25.5594
Pt 17.3221 23.9693 22.9755
Pt 19.3905 6.34408 9.52596
Pt 19.4689 6.07756 13.4558
Pt 21.3712 6.21109 11.5616
Pt 19.4056 5.98101 17.4448
Pt 21.3406 6.01585 15.4758
Pt 19.2717 6.03961 21.2655
Pt 19.4663 7.85357 19.4429
Pt 18.9399 10.8075 6.95734
Au 19.5973 8.04078 7.36264
Pt 19.6621 9.91756 9.46454
Au 21.636 7.86224 9.37347
Pt 21.545 10.0435 7.57789
Au 19.525 8.04528 11.4964
Pt 19.5441 9.89667 13.5318
Au 21.4719 7.96332 13.4991
Pt 21.6497 9.78602 11.4777
Au 19.4627 7.88532 15.4876
Pt 19.5219 9.8222 17.5189
Au 21.2884 5.7802 19.3604
Pt 21.3848 7.86405 17.5122
Au 17.5188 9.85786 19.4694
Pt 19.501 9.71662 21.4507
Au 21.5092 7.57342 21.5973
Pt 21.5201 9.626 19.5542
Au 21.133 7.74658 24.9767
Pt 19.3544 9.66124 25.2032
Pt 21.38 9.7131 23.3498
Pt 19.0931 12.7375 5.06466
Au 20.9084 10.7559 5.04221
Au 18.7643 9.07074 4.92093
Pt 19.0616 12.7356 8.87744
Au 21.6853 11.8462 9.55134
Pt 20.9731 12.6821 7.00417
Au 19.658 11.8329 11.5003
Pt 19.6868 13.7794 13.5439
Au 21.6322 11.8065 13.5423
Pt 21.7332 13.7495 11.5521
Au 19.586 11.8417 15.5427
Pt 19.6452 13.7362 17.5599
Au 21.6003 11.7491 17.5689
Pt 21.7313 13.6829 15.5827
Au 19.5926 11.7594 19.5379
Pt 19.576 13.6516 21.5987
Au 21.5634 11.656 21.5274
Pt 21.6597 13.6296 19.5544
Au 19.4699 11.6697 23.5233
Pt 19.5764 13.5004 25.4653
Au 21.4607 11.4747 25.4828
Pt 21.5455 13.4871 23.5567
Pt 17.2409 18.8944 5.15507
Au 19.1517 16.7723 4.79679
Au 19.0159 14.7581 6.86267
Pt 19.1298 16.5844 8.96954
Au 21.0911 14.5941 8.96582
Pt 21.0664 16.5919 7.05699
Au 19.1087 14.6206 10.9603
Pt 19.1641 16.5177 12.9965
Au 21.785 15.6103 13.6072
Pt 21.188 16.4538 10.9925
Au 19.7276 15.6526 15.5784
Pt 19.7446 17.5404 17.6086
Au 21.7724 15.5588 17.5952
Pt 21.8215 17.4895 15.6247
Au 19.6558 15.5874 19.5829
Pt 19.6849 17.4474 21.6457
Au 21.6192 15.485 21.5711
Pt 21.7507 17.4221 19.615
Au 19.6322 15.5003 23.698
Pt 19.6934 17.4134 25.5476
Au 21.5884 15.3938 25.7533
Pt 21.6639 17.3867 23.6244
Pt 19.2466 20.6375 5.38951
Au 21.226 22.4392 5.44446
Au 19.1264 18.5445 7.05905
Pt 19.2195 20.4884 9.13594
Au 21.1683 18.4492 9.09868
Pt 21.1563 20.4699 7.28442
Au 19.1898 18.498 11.0645
Pt 19.2177 20.4429 13.0508
Au 21.2274 18.3808 13.0496
Pt 21.3141 20.3899 11.0948
Au 19.1853 18.4244 15.0238
Pt 19.1989 20.3332 17.0462
Au 21.799 19.3691 17.6418
Pt 21.2077 20.249 15.0702
Au 19.7863 19.439 19.6487
Pt 19.8496 21.3569 21.6916
Au 21.779 19.3119 21.6804
Pt 21.8618 21.3235 19.7109
Au 19.7074 19.3106 23.6592
Pt 19.7064 21.2216 25.3988
Au 21.6901 19.2836 25.6348
Pt 21.7184 21.1654 23.6071
Au 21.3625 24.2243 7.49592
Pt 21.2747 22.3066 9.2815
Au 23.2427 22.2896 7.38078
Au 19.275 22.4196 11.1191
Pt 19.399 24.2253 13.1389
Au 21.2961 22.225 13.0847
Pt 21.3354 24.0794 11.2147
Au 19.3 22.3648 15.0995
Pt 19.3615 24.1724 17.1355
Au 21.2315 22.1676 17.1133
Pt 21.3694 24.0856 15.1396
Au 19.2644 22.2252 19.0723
Pt 19.3151 23.9671 21.0724
Au 21.9146 23.2478 21.7463
Pt 21.2956 23.935 19.1265
Au 19.8963 23.3097 23.6898
Pt 23.2374 6.134 13.5976
Pt 23.1842 6.08285 17.3558
Pt 23.3673 7.86435 15.5134
Pt 23.5209 9.88177 9.61152
Au 23.5969 7.72962 11.4258
Pt 23.5226 9.79706 13.5563
Au 25.3486 7.80033 13.6144
Pt 25.2945 9.78165 11.6716
Au 21.5229 9.83925 15.5521
Pt 23.4463 9.6927 17.5414
Au 25.3176 7.71404 17.4298
Pt 25.3475 9.67401 15.5749
Au 23.4523 7.5841 19.5504
Pt 23.3858 9.67205 21.4295
Pt 25.212 9.61252 19.4164
Pt 20.9964 14.7286 5.16994
Au 23.6524 11.8372 7.54933
Pt 23.7052 13.7167 9.57088
Au 25.5366 11.6904 9.68196
Pt 22.9603 14.5697 7.0565
Au 23.6374 11.7781 11.617
Pt 23.7966 13.652 13.6177
Au 25.7788 11.616 13.6066
Pt 25.5802 13.5895 11.6317
Au 23.6912 11.7161 15.5847
Pt 23.7802 13.6063 17.5888
Au 25.7418 11.5478 17.5788
Pt 25.6406 13.545 15.6137
Au 23.5777 11.6266 19.5121
Pt 23.5941 13.4765 21.5532
Au 25.5003 11.4651 21.5144
Pt 25.5428 13.4434 19.6204
Au 23.5833 11.381 23.5961
Pt 23.4214 13.4647 25.3197
Pt 25.3219 13.4521 23.4634
Pt 21.1081 18.614 5.32769
Au 22.9894 16.5949 5.23008
Au 22.7645 12.7645 5.06565
Pt 23.1581 16.4279 8.97221
Au 25.6925 15.5896 9.68639
Pt 23.0699 18.4518 7.21097
Au 23.8005 15.5757 11.635
Pt 23.8718 17.475 13.6437
Au 25.955 15.495 13.6298
Pt 25.6616 17.4835 11.6788
Au 23.8629 15.5252 15.6183
Pt 23.8775 17.3815 17.639
Au 25.9381 15.4289 17.6607
Pt 25.7454 17.3841 15.6601
Au 23.7885 15.4611 19.6235
Pt 23.6997 17.3633 21.6292
Au 25.8119 15.3544 21.616
Pt 25.6627 17.3485 19.6872
Au 23.5225 15.3799 23.5102
Pt 23.5347 17.226 25.3921
Au 25.3892 15.2869 25.4196
Pt 25.4278 17.2023 23.5382
Au 23.0638 20.4113 5.40918
Pt 23.2172 20.3108 9.1416
Au 25.1492 18.2981 9.06631
Au 23.1928 18.2956 11.0405
Pt 23.2852 20.2535 13.0646
Au 25.9551 19.3455 13.6883
Pt 25.0569 20.1238 11.1523
Au 23.88 19.3102 15.6668
Pt 23.8061 21.223 17.6993
Au 25.9808 19.271 17.7026
Pt 25.6962 21.2096 15.7304
Au 23.7908 19.2531 19.6394
Pt 23.7361 21.1359 21.6215
Au 25.7331 19.2315 21.6651
Pt 25.5612 21.1311 19.6343
Au 23.8057 19.3695 23.7441
Au 23.4837 22.3815 10.9807
Pt 23.2658 23.8918 13.2304
Au 25.3224 22.0831 13.1362
Au 23.1984 22.0244 15.1268
Pt 23.2332 23.8719 17.1604
Au 25.7902 23.0406 17.7166
Pt 25.0211 23.75 15.2592
Au 23.8904 23.2435 19.7529
