561
Atoms. Timestep: 20544
Pt 17.1289 19.5006 8.90122
Au 22.6719 5.99099 12.6701
Pt 24.3728 17.0383 13.9224
Au 16.5933 14.745 4.26406
Pt 10.3486 16.5482 19.3326
Pt 17.1583 16.8574 21.4005
Au 17.3998 15.9869 26.0386
Pt 23.8965 12.4994 13.2965
Au 26.821 16.5607 15.0702
Pt 6.82087 10.8711 11.1779
Au 12.9836 12.8459 25.1331
Pt 22.4867 24.2015 16.1572
Au 20.1129 15.8302 6.68415
Pt 14.536 19.8193 15.9296
Pt 15.0187 13.4889 15.6356
Au 10.3503 8.16111 20.309
Au 27.2139 17.8831 17.4714
Pt 16.652 7.90725 11.5736
Au 12.7065 6.88423 21.3259
Pt 9.68658 20.6483 16.0085
Au 22.2317 8.22985 22.2396
Pt 19.5612 9.91227 13.244
Au 26.0677 21.8661 19.3083
Pt 16.11 21.5579 14.3041
Au 24.9203 22.6575 12.6701
Pt 10.3352 11.7724 21.1131
Au 13.7382 14.9525 3.87487
Au 16.7983 23.9255 21.105
Pt 17.9933 8.84315 18.7684
Au 5.36256 17.7855 21.3395
Pt 11.7562 7.9245 11.8264
Au 12.9882 9.48292 7.70763
Pt 18.051 18.8708 19.3781
Au 27.4409 20.6478 17.186
Au 7.70337 23.3571 12.924
Pt 19.993 17.0272 9.99759
Pt 17.3419 5.19554 15.1086
Pt 21.596 19.9393 18.9151
Pt 8.53194 15.3511 10.8215
Pt 7.42179 9.736 16.3198
Pt 12.2773 8.61584 14.5774
Pt 15.835 6.97224 9.28177
Au 19.8483 12.318 24.1931
Pt 9.08001 10.1297 18.9902
Au 22.713 8.51408 8.38316
Pt 14.4073 10.7611 14.5985
Au 14.229 7.97899 23.2711
Pt 8.8462 15.4059 23.6306
Au 11.2684 6.25451 18.6689
Pt 19.9063 10.8385 19.5711
Au 26.3169 8.50534 18.4186
Pt 11.5244 19.6207 12.6245
Au 12.7717 4.73753 16.7946
Pt 15.0425 10.4645 22.4436
Au 24.9372 23.8268 15.1692
Pt 20.235 17.6558 15.3021
Pt 20.5772 8.57879 18.115
Pt 10.8068 8.96937 9.53797
Au 15.0515 3.46043 17.5508
Au 9.59507 9.39251 22.5453
Pt 9.09188 19.7221 11.5257
Au 23.428 6.58777 15.228
Pt 25.126 18.6408 15.9437
Au 11.9856 20.0142 24.4916
Pt 12.0322 15.8683 21.2267
Au 10.4177 13.9608 25.2715
Pt 17.2308 14.5486 19.8981
Au 21.7453 4.41885 14.652
Pt 7.88021 9.96678 8.95276
Au 19.6725 7.95629 23.6839
Pt 17.3736 11.7696 18.7456
Au 12.4787 12.5388 4.47205
Pt 20.6328 14.1058 22.3619
Au 3.30922 15.2796 12.4189
Pt 15.0523 8.18978 15.256
Au 26.4624 19.1175 10.199
Pt 18.3593 21.409 12.6946
Au 21.549 11.6132 21.7185
Pt 22.7439 19.0711 14.6318
Pt 18.2795 15.0451 9.4709
Au 10.8452 14.8241 4.48844
Au 18.5623 10.1545 25.084
Pt 5.25981 17.801 13.3419
Au 20.2554 8.93931 7.44325
Pt 4.7692 17.7792 15.9295
Au 25.9236 15.047 12.91
Pt 13.1037 12.9571 13.8926
Au 13.2176 10.2013 24.4235
Pt 22.7529 21.4995 17.2111
Au 4.4091 20.0236 11.6385
Pt 16.8801 12.5927 10.2497
Au 11.8328 25.6859 18.6859
Pt 18.6592 21.1491 15.2745
Au 18.2964 3.3745 11.0524
Pt 16.7109 12.1999 7.53737
Au 24.4911 15.0327 19.9103
Pt 7.6561 17.5182 12.2806
Au 14.2107 27.2429 18.1721
Pt 21.0926 11.8339 8.64739
Au 19.4887 6.09756 19.152
Pt 14.8812 17.7911 11.4781
Au 24.3824 11.9308 16.0209
Au 12.6759 27.0545 15.9793
Pt 17.7279 7.75102 14.1725
Au 5.16766 9.31761 9.41521
Pt 15.8367 18.7483 23.5037
Au 6.18269 13.9787 7.2201
Pt 19.2906 21.1588 18.0569
Au 14.8731 23.6577 7.84641
Pt 19.1612 23.1838 19.9606
Au 20.6788 17.4241 25.2844
Pt 8.68029 20.3237 8.91283
Au 3.74817 11.2162 19.0997
Pt 20.9086 12.8374 13.1151
Au 6.626 21.9213 10.7363
Pt 12.8538 18.2473 19.7092
Au 9.59208 24.0243 18.4409
Pt 8.65609 14.3424 16.3598
Au 20.2561 21.3032 6.95823
Au 17.9406 4.7914 21.0098
Pt 16.0565 23.8376 15.892
Au 23.5934 13.8212 22.1255
Au 8.57447 7.63198 17.9709
Pt 15.8929 16.0785 23.7959
Au 21.8878 11.5954 17.6707
Pt 15.486 23.1329 18.5708
Au 9.49634 18.4346 24.15
Pt 13.438 17.7049 24.2604
Au 8.465 20.6969 6.25421
Pt 11.5586 11.1139 15.0735
Au 6.96109 6.74045 12.8143
Au 19.3769 24.4281 22.4823
Pt 7.27075 16.4429 14.8585
Pt 12.7742 10.6467 12.3671
Pt 10.9206 8.86611 17.5448
Pt 23.6318 10.0675 14.2659
Pt 16.691 9.99103 13.5384
Pt 16.4411 23.0133 11.8872
Pt 20.4281 18.1229 20.6866
Pt 20.712 22.4492 13.5372
Pt 21.3578 22.6946 21.4102
Pt 18.2852 17.3826 7.91462
Pt 18.224 14.609 12.0731
Au 19.6017 14.9773 24.8359
Au 6.18532 19.4018 7.40866
Pt 21.4581 23.1851 18.6754
Au 17.9356 17.0298 5.22768
Pt 15.7896 12.6843 12.9813
Au 14.6328 25.2887 20.01
Pt 7.14572 19.0533 15.4246
Au 6.76451 21.6968 15.1719
Pt 18.3149 6.8495 16.8601
Au 16.5287 3.24938 13.1306
Pt 8.1999 12.5769 19.0032
Au 14.6816 3.98655 14.9602
Pt 15.3218 8.6189 18.0288
Au 24.4819 8.32316 20.4428
Pt 20.559 9.68918 10.2345
Au 17.6262 25.6233 12.5984
Pt 23.255 18.0416 20.0104
Au 8.7118 25.5744 14.041
Pt 13.0472 15.4463 18.7485
Au 15.409 21.0783 6.77012
Pt 4.45726 12.7653 14.8248
Pt 16.2689 20.0952 11.6188
Au 22.4925 23.0852 10.8934
Au 22.5087 12.5646 24.1392
Pt 16.6194 6.50546 19.1719
Au 5.20028 12.9093 12.126
Pt 16.0398 5.0174 11.0825
Au 17.9858 25.8674 15.6146
Pt 22.7531 18.3691 17.2029
Au 5.52299 11.9576 8.98391
Pt 14.9719 17.4192 14.9032
Au 13.9032 26.9269 13.3392
Pt 12.5607 13.29 20.161
Au 14.5936 24.1291 22.754
Pt 16.0153 12.5482 21.0325
Au 10.0771 20.6822 22.5408
Pt 5.93016 14.7997 16.871
Au 13.9886 5.9079 19.1199
Pt 20.1454 19.8787 23.3079
Au 4.64442 10.5581 16.4564
Pt 25.0112 20.1472 13.8401
Au 14.1019 4.41569 9.37695
Pt 5.56669 8.94845 12.1428
Pt 8.24083 19.5302 17.9488
Au 24.0991 19.7484 23.6111
Au 17.5605 4.24146 18.1135
Pt 18.3309 8.33968 9.33651
Au 9.84241 24.8036 11.5935
Pt 11.6336 22.2996 12.0749
Au 17.0183 23.4521 23.9007
Pt 17.7974 16.4783 18.2905
Au 6.54904 7.207 10.1172
Pt 15.149 8.3849 20.6872
Au 23.9046 10.4529 22.1553
Pt 8.88976 17.7594 9.78437
Au 20.9361 25.2922 20.363
Pt 9.05903 14.8622 13.4461
Au 22.7862 8.18917 11.0907
Pt 20.062 8.42232 20.6862
Au 17.8283 6.61654 7.37921
Pt 10.2636 13.753 7.54036
Au 25.657 16.5942 10.4474
Pt 19.5715 13.2346 18.3513
Au 8.9465 9.31346 6.42139
Pt 12.4493 12.0612 7.08484
Pt 18.3531 5.90054 10.0269
Au 8.7261 23.4003 15.7817
Au 25.9572 10.5821 20.0377
Pt 12.0458 11.3244 9.91731
Au 12.5751 25.0033 11.948
Pt 6.18654 14.5299 9.92216
Au 12.3038 22.3312 22.8208
Pt 22.4407 16.1844 15.6758
Au 27.4043 19.5569 19.6109
Pt 19.158 17.2089 12.8027
Au 4.68945 20.9716 9.1141
Pt 13.7798 20.0299 22.4178
Au 4.55981 15.2122 21.8828
Pt 12.3099 18.1728 10.4911
Au 14.8729 13.2032 5.71551
Pt 11.9544 18.7634 15.1894
Au 9.90717 12.1603 5.3684
Pt 18.3648 12.176 13.0632
Au 13.1954 25.3139 9.20215
Pt 13.7959 13.0547 11.2403
Au 17.1505 24.2096 9.6081
Pt 12.8729 17.2295 13.1443
Au 24.436 17.0044 22.3515
Au 24.4989 23.6256 17.9364
Pt 6.88629 13.7051 14.4677
Au 7.74438 10.9514 21.2391
Pt 11.7143 14.8634 12.5127
Au 26.6869 13.0884 14.9775
Pt 18.8675 12.7035 21.0368
Au 4.36152 15.7328 8.1433
Pt 22.0972 16.0653 18.5509
Au 23.7575 12.1114 19.9426
Pt 19.795 19.5526 8.7906
Au 6.88719 9.06122 22.9875
Pt 10.3162 9.80239 12.9041
Au 26.7093 10.7522 16.902
Pt 17.3 14.3346 14.4869
Au 24.6737 14.0861 10.6817
Pt 24.2191 10.1291 18.0271
Au 15.7976 18.3571 6.515
Au 7.53611 11.6284 6.76315
Pt 19.8634 8.60613 15.5598
Pt 17.3687 17.3244 10.6929
Pt 15.3976 13.326 23.5509
Pt 12.1352 20.7431 20.3768
Pt 6.84869 12.2318 16.6243
Pt 23.3493 13.9461 17.6711
Pt 19.5895 12.5685 10.6707
Pt 16.1105 9.6784 8.90229
Pt 10.5127 13.6898 18.5204
Pt 11.2058 16.4032 23.8434
Pt 15.0066 13.6036 18.6608
Pt 22.331 9.71918 19.8209
Pt 7.99874 12.9626 11.9971
Au 20.2656 23.044 8.99381
Au 6.0207 11.6917 23.2808
Pt 18.2261 21.6845 10.0566
Au 10.3936 22.8951 20.8266
Pt 19.5147 13.0311 15.5637
Au 26.7078 17.9219 12.6534
Pt 14.0079 22.3548 16.2351
Au 20.7998 6.9246 9.49215
Pt 21.9874 18.0169 22.9508
Au 22.0998 21.9027 23.7989
Pt 6.58116 17.3916 17.5792
Au 11.2004 6.22974 9.59974
Pt 5.04401 16.9047 10.9042
Au 14.9018 10.5805 6.11003
Pt 13.1196 15.4346 15.3741
Au 11.1911 26.5306 13.7064
Pt 19.2855 10.7876 16.9598
Au 21.5702 13.3854 6.38158
Pt 17.187 9.32186 16.2737
Au 21.8298 17.5882 8.1137
Pt 6.5361 17.0751 8.83058
Pt 8.78792 11.7295 14.4534
Au 26.3573 12.4346 12.2225
Au 17.2303 20.7974 24.7111
Pt 15.3088 10.6484 11.341
Au 4.01342 18.4163 9.0256
Pt 17.2683 14.9659 6.93108
Au 6.3356 10.2568 18.7284
Pt 18.1957 17.8599 24.1875
Au 21.3577 14.7154 8.87569
Pt 9.33867 18.6909 14.1093
Au 20.2113 6.03735 21.8871
Pt 13.2297 12.2947 22.3962
Au 16.9174 4.10514 8.74224
Pt 9.40585 21.4358 13.5403
Au 19.0737 13.9109 5.08862
Pt 14.3856 20.567 18.7135
Au 22.0425 19.7589 25.3636
Pt 21.7994 17.2814 12.9583
Au 15.0656 14.3708 26.0067
Pt 14.7289 14.7583 21.2458
Au 22.9282 16.3721 10.6566
Pt 12.068 21.382 14.6073
Pt 13.3922 15.7588 10.6374
Au 22.7341 25.6669 18.3598
Au 7.70292 19.2211 22.1021
Pt 9.53653 17.0904 21.7975
Au 6.83626 22.0306 7.99237
Pt 20.1884 17.7953 18.0718
Au 22.3073 15.4188 24.0275
Pt 8.64412 8.54344 11.1362
Au 12.7559 12.8978 17.1066
Pt 13.6317 20.6051 11.1072
Au 14.2856 19.5996 4.55134
Pt 15.4396 6.17049 13.4712
Au 4.21227 18.034 18.7207
Pt 15.3647 15.7732 16.9355
Au 19.7761 11.3058 6.05809
Pt 14.3064 8.51079 12.7704
Au 11.5102 10.0297 5.53748
Pt 22.986 21.8602 14.7439
Au 2.27033 14.4139 14.9451
Pt 22.0136 10.6367 12.2281
Au 23.4777 24.1951 20.5084
Pt 20.1802 15.2108 14.227
Pt 16.6502 16.5482 13.1239
Au 6.09246 19.8456 19.7171
Au 14.4916 19.1036 9.03493
Pt 14.0216 23.2286 10.6284
Au 24.7058 16.4778 17.5299
Pt 11.3632 23.1024 16.5561
Au 18.1679 23.6284 17.4871
Pt 15.8967 14.9684 10.9004
Au 21.462 10.0547 24.059
Pt 11.1691 13.872 22.7283
Au 7.79707 7.08489 15.428
Pt 8.14707 12.8418 9.11829
Au 8.78674 7.30948 8.5603
Pt 7.81351 17.7093 19.8043
Au 20.4625 4.9793 11.6718
Pt 12.6316 14.6248 6.44184
Au 11.0129 7.72831 7.08861
Pt 20.0584 15.3454 16.9235
Au 5.16815 10.0393 21.167
Pt 16.3125 25.5855 17.9048
Au 15.3679 5.35565 7.09445
Pt 19.9855 6.25476 14.317
Pt 13.0388 24.5879 14.7722
Au 26.9357 22.0221 14.6202
Au 9.7752 6.98486 13.416
Pt 5.59469 13.0501 18.8228
Au 3.58109 13.7307 10.0819
Pt 15.7633 16.7173 8.76568
Au 8.92861 16.9077 4.76763
Pt 11.1684 20.574 10.0069
Au 8.26512 10.6721 24.5165
Pt 8.99381 17.1789 16.6683
Au 2.63114 17.1272 14.5599
Pt 10.7064 23.7892 13.9722
Au 4.41402 20.0647 14.4872
Pt 13.1083 7.34393 16.8384
Au 26.259 10.5107 14.1603
Pt 17.1821 11.8016 15.4536
Au 7.53714 8.34828 20.4674
Pt 15.9058 18.4527 17.6548
Au 12.3916 24.5541 21.1557
Pt 10.339 17.1309 11.9938
Au 24.07 18.6301 9.08464
Pt 10.6689 16.4811 14.612
Pt 24.8575 19.569 18.3902
Pt 9.69489 11.6222 16.922
Pt 8.03131 15.2425 18.7242
Pt 22.3287 12.9761 10.872
Pt 14.5361 15.0792 13.1859
Pt 10.1902 21.3879 18.5408
Pt 5.52083 15.742 19.3907
Pt 6.31121 15.2982 12.4794
Au 16.8588 8.75484 23.5489
Pt 17.9721 19.3081 21.9716
Au 8.33289 14.3916 5.60746
Pt 6.24902 11.0935 13.9807
Au 6.59663 8.36128 7.41151
Pt 22.1345 15.9768 21.2304
Au 22.7819 20.7957 12.366
Pt 13.983 22.5202 13.2106
Au 8.21599 21.3534 20.4316
Pt 15.3776 24.7101 13.5914
Au 13.3577 6.78772 8.20727
Pt 10.8773 18.5582 8.27491
Au 12.537 15.5841 26.0232
Pt 17.1727 10.1574 20.8315
Au 15.2566 25.6343 11.0596
Pt 8.39703 15.4618 8.13259
Au 18.3605 25.6783 19.5548
Pt 12.5756 13.8996 8.98617
Pt 22.4794 8.9651 16.3642
Pt 14.2661 17.2648 21.8412
Au 22.514 10.7053 6.84458
Au 8.89986 5.89344 11.0077
Pt 17.7805 14.4931 22.6758
Au 2.54644 16.2693 9.99229
Pt 12.613 22.951 18.8587
Au 12.0189 23.7287 7.24416
Pt 17.3918 11.6692 23.1452
Au 24.2492 22.151 22.1571
Pt 21.609 13.6588 19.8315
Au 19.416 19.7799 25.9397
Pt 17.3542 14.036 17.1473
Au 24.8245 10.182 11.7689
Pt 24.1978 18.5792 11.7994
Au 20.2252 18.5655 6.21503
Pt 8.52773 18.1031 7.14769
Au 10.8691 11.4095 23.9337
Pt 10.872 15.9757 9.49085
Au 2.78152 17.9994 12.0227
Pt 17.9935 10.2381 11.1492
Au 14.8652 17.027 26.3716
Pt 13.0595 16.786 8.06742
Pt 7.84504 9.20836 13.5187
Au 12.6501 17.1753 5.0379
Au 7.49708 22.0668 17.8693
Pt 14.2748 22.3412 20.8122
Au 23.5876 12.967 8.24972
Pt 19.3408 10.2154 22.338
Au 19.4202 23.8681 11.5662
Pt 21.6972 18.8838 10.7462
Au 12.998 19.2835 6.79896
Pt 19.6948 16.577 22.5983
Au 15.3453 26.6293 15.6151
Pt 11.6549 11.0406 18.9679
Au 17.1634 2.73548 15.8111
Pt 22.3237 20.1563 21.5566
Au 25.3027 8.58507 15.879
Pt 15.5885 19.1526 20.526
Au 26.9347 20.7204 12.2253
Pt 13.8029 6.43926 11.1212
Au 14.5291 19.6884 25.7163
Pt 18.5873 21.9501 22.3388
Au 5.38742 20.1758 17.1553
Pt 19.8369 20.6641 20.5921
Pt 21.2514 10.9423 15.008
Au 17.6367 9.51584 6.51762
Au 15.114 14.1825 8.42516
Pt 19.1363 13.3475 7.79421
Au 14.2912 10.9397 19.7372
Pt 9.22635 22.2779 10.8201
Au 13.8895 3.97531 12.2911
Pt 13.2047 21.5747 8.54459
Au 10.4287 25.6082 16.2346
Pt 9.49827 11.0521 10.748
Au 21.3122 6.30912 16.8882
Pt 24.6161 14.6757 15.329
Au 12.9777 21.7785 5.71944
Pt 20.6859 15.0655 11.5366
Au 20.2187 25.4357 17.3789
Pt 18.1535 23.5549 14.2416
Au 15.6753 11.0844 25.1484
Pt 6.59482 19.2247 10.2953
Au 17.2432 11.9436 4.98482
Pt 14.2115 19.6254 13.4197
Au 24.6801 7.87485 13.1948
Pt 15.2744 16.6526 19.4378
Au 2.59247 12.6602 12.8071
Pt 18.2678 18.9433 16.6504
Au 14.5242 21.9674 24.3959
Au 3.36177 13.0721 17.1544
Pt 13.4288 15.0488 23.5253
Au 5.19079 22.2462 13.0141
Pt 17.0973 21.3803 19.8365
Au 12.3298 9.73591 21.7374
Pt 18.8622 19.2714 11.2281
Au 15.3796 17.2103 4.00297
Pt 10.1338 11.1148 8.00662
Au 23.8956 7.3057 17.9302
Pt 12.2922 20.6025 17.2264
Au 12.814 6.0211 14.1955
Pt 21.7367 8.27186 13.6764
Au 17.7385 22.3886 7.56138
Pt 4.73898 15.417 14.6761
Pt 20.4047 22.8329 16.1653
Pt 9.4511 14.3885 20.8803
Pt 11.1623 15.7447 17.0293
Au 26.8109 14.8953 17.1305
Pt 18.6376 10.8804 8.66386
Au 15.4705 5.98551 21.8376
Pt 6.89338 20.0983 12.9442
Au 22.0956 6.81527 19.8385
Pt 25.1024 21.3439 16.367
Au 10.5613 19.0371 5.48238
Pt 10.4246 13.5237 10.3643
Au 4.20337 12.553 21.4179
Pt 16.0739 21.3045 22.3183
Pt 17.7536 7.57739 21.2915
Pt 22.9391 14.8779 13.0716
Au 27.5057 19.3427 14.8235
Pt 20.878 20.0596 16.1846
Au 9.30397 23.0388 8.14291
Pt 15.5058 6.04355 16.7473
Au 6.52725 16.5458 6.20418
Pt 13.7851 24.7895 17.2202
Au 17.9801 19.9303 6.30044
Pt 18.0069 5.66164 12.6242
Au 3.27988 14.3024 19.5732
Pt 15.351 11.3001 17.2307
Au 16.6245 21.1771 17.0796
Pt 15.7101 21.6633 9.49764
Au 25.157 19.736 21.1361
Pt 10.696 12.4505 12.7158
Au 19.6031 22.3118 24.7088
Pt 23.467 21.619 19.6842
Au 10.5617 6.48322 16.0162
Pt 20.5722 21.2836 11.0342
Pt 12.8975 8.5902 19.2692
Pt 10.8624 13.699 15.1997
Au 22.2588 20.8759 8.88659
Au 22.7773 24.2531 13.3923
Pt 13.337 17.6529 17.1803
Au 25.5083 11.7464 9.70298
Pt 10.8974 21.0906 7.37573
Au 16.974 18.6764 26.4154
Pt 6.72969 13.4045 21.1236
Au 3.80806 10.8832 11.0698
Pt 19.5981 7.69273 11.8511
Au 17.2616 19.0302 14.0391
Pt 20.357 19.6762 13.4549
Au 15.3937 8.00812 6.76826
Pt 9.72364 9.11106 15.3846
Au 3.69315 10.3032 13.7472
Pt 13.1725 10.0468 16.8833
Au 19.6017 4.25121 16.3842
Pt 11.4305 23.3323 9.73985
Au 11.4282 5.15049 12.0233
Pt 17.735 16.5804 15.6356
Au 23.5652 17.5363 25.0249
Pt 13.7089 8.92078 10.1487
Au 23.9552 15.7063 8.32604
Pt 19.6703 15.5633 20.0168
Au 17.7494 6.07295 23.4136
Au 24.6296 21.0723 10.4172
Pt 22.1365 13.4849 15.4105
Au 25.7865 12.8073 18.341
Pt 11.7348 18.4748 22.1713
Au 8.59574 12.8559 23.1397
Pt 10.5926 16.3524 6.78034
Au 17.4978 13.2346 25.3877
Pt 14.9139 15.8972 6.25063
Au 19.2377 3.47681 13.7757
Pt 7.24371 15.8204 21.4782
Au 6.87786 17.1988 23.705
Pt 23.1061 10.6671 9.775
Au 5.47729 8.42678 14.7913
Au 20.3797 25.0877 14.4394
Pt 14.4285 11.6346 8.86223
Au 6.32899 14.4121 23.7452
Au 25.9324 17.3332 19.9133
Pt 10.001 19.1951 20.1857
Au 3.36687 15.8352 17.2008
Pt 10.842 18.6016 17.7306
Au 15.6058 3.96628 20.0742
