561
Atoms. Timestep: 20662
Pt 16.4046 22.5506 12.6776
Au 18.6019 27.7781 13.1121
Pt 17.8519 9.50599 7.34419
Au 14.2109 9.2014 23.7224
Pt 11.577 9.07337 10.8598
Pt 19.4424 17.5021 12.7371
Au 16.214 17.7013 26.8841
Pt 22.8684 8.18782 16.0116
Au 15.3317 8.24616 3.6081
Pt 14.1752 9.9646 9.77436
Au 11.2065 27.1799 13.2558
Pt 16.4968 12.1053 17.9541
Au 20.8261 25.3983 9.70953
Pt 20.8715 15.4166 11.934
Pt 19.9412 14.0646 9.81534
Au 11.2734 23.2471 9.03123
Au 23.789 12.9779 6.92573
Pt 20.9414 11.8008 17.4249
Au 11.4761 21.0356 7.13786
Pt 10.5392 21.4751 11.1533
Au 12.2306 16.8228 27.3076
Pt 14.3407 14.4843 24.8912
Au 5.47118 12.5016 18.8498
Pt 14.1117 22.8837 14.0166
Au 5.62524 8.12468 15.2724
Pt 15.7317 11.1759 12.0366
Au 6.01465 9.02469 12.3107
Au 12.9511 9.50945 4.40745
Pt 13.2379 15.6888 13.44
Au 9.24635 23.1404 19.4634
Pt 10.5944 11.7386 20.3764
Au 24.9008 20.2771 16.9017
Pt 12.8375 18.5859 23.1657
Au 11.9193 5.77044 10.0705
Au 25.3221 19.0318 14.4419
Pt 20.5695 21.1042 15.4544
Pt 11.0149 7.37608 19.9703
Pt 12.0897 19.2377 11.6837
Pt 19.6701 25.4221 14.2772
Pt 13.6834 9.88438 7.05043
Pt 17.0147 13.3744 13.2637
Pt 15.9824 8.94528 13.7619
Au 9.68892 12.1179 25.8061
Pt 17.8735 20.076 19.0939
Au 5.44628 10.7981 14.4575
Pt 11.9538 13.2353 24.9561
Au 23.1968 23.8178 19.6798
Pt 18.2146 9.11783 21.2725
Au 18.3695 15.1821 4.53042
Pt 11.4442 9.43568 13.7455
Au 23.143 12.3311 21.9171
Pt 18.956 14.5573 20.8308
Au 5.85374 22.0778 13.4508
Pt 23.1726 13.0695 16.3131
Au 19.9527 17.9156 4.47388
Pt 12.0357 23.5813 15.5572
Pt 15.9467 15.8668 13.6854
Pt 14.1244 6.87817 14.0853
Au 13.3151 14.4108 27.3443
Au 11.7404 10.2595 24.7422
Pt 10.319 16.8978 19.5102
Au 4.63443 15.0626 17.9166
Pt 11.0826 19.7371 18.8411
Au 12.9621 7.45546 25.2386
Pt 22.1881 19.4329 17.2034
Au 23.4751 19.8777 21.6647
Pt 11.5573 16.9531 8.1437
Au 16.92 13.0185 3.43541
Pt 14.4617 16.6828 8.67329
Au 21.8552 6.53327 22.5158
Pt 21.029 10.9832 12.7101
Au 23.4125 10.4402 17.5473
Pt 10.4632 13.6261 18.4777
Au 15.0794 12.3247 27.0143
Pt 10.2908 12.104 7.25885
Au 4.10015 17.8562 14.0742
Pt 15.1096 25.4656 14.4618
Au 24.0499 22.2785 12.5293
Pt 21.1522 23.6544 15.5361
Pt 8.42648 21.7559 12.832
Au 21.2341 8.24544 6.3242
Au 16.4858 21.907 6.5342
Pt 20.8516 8.34819 21.071
Au 20.6903 23.6875 21.0192
Pt 20.7105 6.48851 17.1414
Au 4.8937 11.4255 11.7568
Pt 14.1244 7.03148 16.7613
Au 20.571 6.10568 12.4073
Pt 14.5615 6.51146 21.8921
Au 17.3257 10.2075 3.20341
Pt 23.4869 19.6558 12.3258
Au 6.50908 14.3197 6.98186
Pt 17.3151 24.1119 10.6642
Au 10.1828 4.98634 15.9904
Pt 12.4552 11.8369 5.85601
Au 24.5826 12.2378 14.0814
Pt 21.6994 16.8018 16.878
Au 7.29966 21.8782 21.6953
Pt 12.5376 11.5166 18.3854
Au 23.1141 19.4701 7.69887
Pt 14.8076 13.7777 15.055
Au 16.4988 24.3105 21.3508
Au 8.02 16.5013 5.98525
Pt 22.0705 12.9443 10.9348
Au 22.9843 24.9615 17.2611
Pt 23.2385 17.0109 12.5057
Au 9.93574 4.96158 19.2644
Pt 20.17 16.1301 19.1472
Au 6.3766 19.5581 17.6958
Pt 17.8629 15.4889 11.4644
Au 6.55596 10.4892 9.83072
Pt 5.7424 15.3796 15.304
Au 24.2699 11.0252 8.77114
Pt 14.9434 12.4414 5.21114
Au 9.77854 14.7569 23.8098
Pt 9.79886 9.05125 15.9906
Au 18.8293 8.80761 4.92759
Pt 8.87975 17.0021 8.44341
Au 21.9831 21.896 8.18033
Au 25.3715 15.9228 10.8069
Pt 16.5408 14.7497 9.11715
Au 13.4743 24.9403 9.45417
Au 18.4118 8.01249 25.3208
Pt 15.1799 16.0325 11.1551
Au 11.1436 25.4566 10.9701
Pt 21.437 18.427 20.0166
Au 24.5653 14.6502 20.818
Pt 9.21076 14.525 7.29976
Au 5.87957 14.9553 20.4574
Pt 17.4335 22.1897 9.0626
Au 14.0265 20.6676 5.93432
Au 8.98555 9.9602 24.2562
Pt 18.8627 13.6563 18.2738
Pt 13.2675 14.48 9.75406
Pt 16.4986 16.2659 6.86335
Pt 6.04219 16.2824 12.8012
Pt 14.3434 16.2595 22.9076
Pt 11.0018 12.6116 9.69931
Pt 18.6091 15.3541 14.1182
Pt 12.949 14.2716 5.05757
Pt 18.4455 10.8477 17.0368
Pt 14.2429 18.1006 12.8522
Pt 7.49162 11.3498 16.5692
Au 10.0377 25.4246 15.0866
Au 12.1259 18.7191 5.39766
Pt 9.21708 10.4569 9.98691
Au 6.78624 24.1737 11.969
Pt 17.153 15.8018 19.0315
Au 15.4659 15.3863 4.47864
Pt 12.6036 14.0726 22.665
Au 3.52281 13.571 11.1044
Pt 10.3493 23.6602 12.9586
Au 24.0327 18.1252 9.8059
Pt 18.5383 12.2678 8.13471
Au 23.2368 16.4423 19.0834
Pt 17.1776 10.5044 9.70879
Au 16.0202 14.9669 27.056
Pt 13.7573 9.17934 12.4235
Au 13.9641 9.84068 26.4905
Pt 14.0693 22.4958 21.5479
Au 23.5967 15.4296 15.1364
Pt 18.7751 21.8087 11.621
Au 23.2099 17.1103 21.7361
Pt 14.7465 14.0945 18.0037
Pt 11.3445 22.1758 17.7447
Au 15.5472 4.40065 14.2294
Au 17.3792 9.49724 27.3673
Pt 20.5897 9.3015 16.4036
Au 9.87502 22.4355 21.9529
Pt 7.80583 17.8347 19.9153
Au 20.9063 19.8493 6.11533
Pt 6.40496 19.4483 12.7497
Au 20.8019 8.73242 23.974
Pt 9.9364 17.6303 10.7331
Au 18.4001 22.5441 22.2673
Pt 9.38449 15.7821 17.141
Au 16.4232 10.5282 25.2012
Pt 13.4232 21.2828 19.2343
Au 18.5672 24.7353 8.31577
Pt 7.20157 13.9939 17.1777
Au 20.8411 26.7717 12.1305
Pt 14.1261 20.94 12.1057
Au 22.8193 8.38778 8.63514
Pt 16.8576 18.0174 12.1474
Au 13.8283 25.2333 21.3999
Pt 21.4712 12.0002 8.31129
Pt 9.87416 7.07215 17.5969
Au 5.45842 12.9721 9.30189
Au 11.2308 8.51218 6.36167
Pt 12.0126 15.9495 24.705
Au 25.6402 21.7317 14.7443
Pt 12.6406 25.055 13.4123
Au 23.9815 16.1327 7.73804
Pt 21.5002 17.3165 8.1492
Au 19.6872 10.2894 26.0978
Pt 7.0395 17.4653 10.5043
Au 8.91086 19.2284 25.3235
Pt 13.4432 15.8586 16.1854
Au 17.8076 12.1669 27.0501
Pt 16.3812 22.5917 15.3653
Au 13.6621 22.7601 7.64828
Pt 10.7221 16.6116 12.8984
Au 5.53624 19.7076 10.0334
Pt 20.3178 10.8278 21.9741
Au 13.2096 21.3016 23.9046
Pt 15.8235 17.6603 20.7882
Au 6.5523 22.1664 16.1742
Pt 20.1601 20.9951 18.1267
Pt 16.2791 21.7307 20.5533
Au 15.0447 5.75167 24.3455
Au 13.9549 7.40071 6.01045
Pt 16.0453 6.34609 12.45
Au 10.8779 24.8453 17.7381
Pt 15.3286 19.5561 19.065
Au 11.5552 14.5345 2.79317
Pt 21.3463 20.8938 10.8455
Au 19.0682 6.9243 22.7531
Pt 16.0802 10.8652 22.4542
Au 8.40553 23.9853 17.0349
Pt 15.7054 20.0361 16.3995
Au 14.7781 10.9707 2.99852
Pt 17.3953 25.1786 15.7478
Au 23.4042 12.7169 19.1472
Pt 18.5456 22.7468 19.5492
Au 22.7835 22.0834 17.2284
Pt 10.3204 15.1436 9.71356
Au 16.693 7.28118 5.90255
Pt 23.4576 9.98271 12.8505
Au 16.9413 5.03581 22.2208
Pt 15.702 18.4167 23.5227
Au 11.9123 23.5876 20.1112
Au 6.87038 16.6861 17.5723
Pt 17.8681 12.7617 22.4169
Au 8.06601 14.5408 25.757
Pt 18.7188 22.9423 16.7788
Au 24.7187 8.17648 18.0947
Pt 11.7863 21.5868 13.5861
Au 22.4402 23.3972 10.6107
Pt 10.996 20.0776 15.9482
Au 10.6299 14.4344 26.9299
Pt 12.4521 7.85112 22.179
Au 15.5301 4.73774 10.4338
Pt 19.7502 11.3719 10.3407
Au 5.07923 20.0879 15.2226
Pt 14.3971 9.45882 18.2597
Au 18.5292 17.7883 23.2937
Pt 9.15704 9.06125 12.2335
Au 3.36037 15.6769 12.69
Au 17.2665 17.6296 4.59084
Pt 11.5046 17.4666 17.2202
Pt 19.6796 18.4262 17.9954
Pt 23.097 20.908 14.7614
Pt 14.1529 11.8433 24.4837
Pt 14.5904 24.3285 16.6994
Pt 20.0742 18.4219 15.3757
Pt 11.4179 10.1666 8.50866
Pt 12.1908 17.9626 14.6224
Pt 11.9968 13.0583 14.0726
Pt 14.4326 11.588 16.5498
Pt 20.1648 10.7611 6.30175
Pt 7.58754 11.2869 12.4542
Pt 16.1784 9.22865 16.4153
Au 10.2031 10.638 4.95538
Au 25.7631 18.438 11.85
Pt 15.1961 12.6361 9.86147
Au 21.8312 26.4003 15.3137
Pt 17.8487 19.814 8.35314
Au 24.8218 10.3634 19.9698
Pt 14.6791 23.6594 19.2324
Au 22.3025 10.8582 15.0744
Pt 8.24331 15.5594 14.6393
Au 21.6726 11.4154 24.3091
Pt 11.6003 14.2622 11.8243
Au 10.9463 4.86539 13.3858
Pt 20.8216 23.5091 18.3499
Au 14.2145 5.73213 8.26402
Pt 16.4186 13.6143 20.1476
Au 21.5423 21.6309 22.5618
Pt 18.9473 16.0976 16.7315
Au 15.7622 26.3451 19.6839
Pt 18.2474 10.5994 12.4728
Au 19.1065 7.01775 7.22776
Pt 12.5537 16.8024 10.7683
Pt 23.6914 14.4398 12.3641
Au 22.5663 17.6698 5.67793
Au 19.2874 20.4795 23.7345
Pt 20.2546 9.44698 8.58784
Au 8.79855 20.4298 20.1032
Pt 14.9254 11.4367 20.046
Au 19.5702 11.9707 3.72735
Pt 8.03381 20.1615 14.9967
Au 8.16505 10.773 21.7345
Pt 12.7664 7.90637 8.56806
Au 12.3987 5.47291 23.4712
Pt 11.8061 7.15044 15.485
Au 8.89435 25.8141 12.5507
Pt 8.93749 18.5489 17.6253
Au 10.0308 7.76006 8.91911
Pt 12.4019 15.4918 18.7738
Au 4.40827 17.6372 16.7425
Pt 14.1323 7.1256 10.6716
Au 6.61573 14.8155 23.1975
Pt 14.1472 17.1336 25.434
Au 4.94577 15.5994 10.1181
Pt 21.1699 16.1473 14.3494
Pt 12.421 9.63879 20.1551
Au 7.65707 8.05641 10.2706
Au 10.5188 7.66753 24.0295
Pt 15.8428 11.4958 7.60546
Au 9.59808 6.41733 11.3703
Pt 10.5598 11.427 12.1334
Au 10.2322 13.5087 4.8719
Pt 20.5743 12.5007 19.9603
Au 8.81829 21.2008 17.463
Pt 12.0329 7.10577 12.5004
Au 25.2195 23.0971 17.192
Pt 13.2949 19.2896 17.3008
Au 23.8134 23.6831 14.9621
Pt 20.1805 8.85564 11.2803
Au 7.85017 6.55911 15.7686
Pt 15.11 13.4134 22.4182
Au 25.5612 11.9701 16.921
Pt 22.5834 15.752 10.0916
Au 7.67238 16.9917 24.3644
Pt 14.6475 17.0314 18.2434
Au 10.0656 5.8921 21.9455
Pt 9.7048 22.3483 15.2135
Pt 19.551 11.7634 14.7834
Au 19.7843 20.392 20.9563
Au 19.3707 27.6839 15.7059
Pt 12.9836 11.6987 11.3266
Au 18.3006 7.67221 12.6184
Pt 9.54985 17.8225 15.2339
Au 22.3269 24.7918 13.0383
Pt 15.5973 8.31837 8.28824
Au 19.2468 6.89088 19.5074
Pt 22.7881 18.2588 14.7931
Au 8.347 13.5317 21.6165
Pt 7.7262 9.27022 14.4728
Au 16.6789 27.7489 15.0091
Pt 10.0994 19.6242 13.2796
Au 7.67458 12.4081 24.0041
Pt 19.8076 24.2444 11.8955
Au 6.73933 22.0399 19.0045
Pt 9.41789 11.2115 14.493
Au 14.5845 19.7455 25.6139
Pt 21.9066 13.3482 13.823
Au 24.7317 21.5947 19.3516
Pt 16.6443 13.3278 24.7501
Pt 15.2165 20.6325 8.55561
Au 13.3996 26.9359 11.4635
Au 22.1343 21.2995 19.8752
Pt 17.7495 11.459 5.53914
Au 8.14732 6.97256 19.6585
Pt 8.10538 12.2634 19.2066
Au 4.03421 20.3068 12.5115
Pt 13.6802 7.18998 19.4479
Au 6.81201 21.9078 10.6268
Pt 13.04 13.2411 20.2181
Au 21.3588 25.925 19.2469
Pt 22.1924 10.4431 19.9997
Au 10.7916 16.2202 5.46287
Pt 16.9134 9.43455 19.023
Au 11.8064 18.9021 25.6436
Pt 9.39641 9.39107 19.5951
Au 22.8558 10.3205 6.6189
Pt 14.5069 19.8959 21.6532
Au 15.7059 7.87131 25.8999
Pt 18.9569 19.2961 10.8415
Au 15.9547 27.4634 12.3352
Pt 11.8899 8.79123 17.6797
Pt 16.6076 16.1034 24.6383
Pt 12.4065 13.539 16.6887
Pt 22.2737 10.332 10.3885
Pt 14.4218 15.4594 20.458
Pt 15.7452 9.80799 5.53797
Pt 20.3723 14.0506 15.8263
Pt 8.43229 19.7988 10.919
Pt 20.5486 15.955 6.03667
Au 12.5854 26.2655 15.9486
Pt 13.1741 12.1543 8.33305
Au 19.7462 4.86854 21.2229
Pt 7.94897 12.3716 8.45014
Au 6.06757 19.7905 20.5511
Pt 11.938 16.5129 21.7651
Au 24.6881 11.8647 11.3634
Pt 18.2055 8.00784 9.63172
Au 13.1962 25.8213 18.7064
Pt 8.27716 15.0632 19.4091
Au 15.8379 26.2859 9.8909
Pt 16.2796 15.6858 16.4067
Au 8.99432 23.7054 10.5698
Pt 20.4408 19.6847 8.69429
Au 7.33465 6.85545 13.0205
Pt 12.8088 21.0393 9.70691
Au 10.5641 20.44 23.6379
Pt 21.5125 18.2026 10.8508
Pt 10.6721 14.4589 20.9238
Pt 8.70381 13.0155 10.8239
Au 15.8531 18.7712 6.80829
Au 24.8672 14.6911 17.7732
Pt 21.2599 8.51309 13.8009
Au 25.9849 14.1744 15.3113
Pt 18.7678 22.8578 14.1273
Au 12.3688 5.02751 20.7409
Pt 14.9379 9.01082 21.0265
Au 14.4176 3.95291 22.3345
Pt 9.44388 13.6149 13.3346
Au 20.1148 4.34588 18.5526
Pt 12.6382 23.1624 11.4829
Au 22.9224 9.61139 22.5089
Pt 19.7525 9.74644 19.0538
Au 5.07402 17.4628 19.4535
Pt 8.28555 17.8156 12.9135
Au 18.2045 19.9713 5.55724
Pt 18.8862 15.0359 23.6953
Au 4.3582 13.4147 13.7091
Pt 17.0155 24.5308 18.2003
Au 14.2104 13.7011 2.73786
Pt 18.8992 17.7781 7.10627
Pt 19.1186 12.4299 24.667
Au 23.2807 5.95893 17.4276
Au 20.828 14.4658 3.75741
Pt 16.5351 20.4127 10.9419
Au 8.0544 19.2821 22.629
Pt 21.0852 19.5696 13.1609
Au 25.9858 12.7792 19.4439
Pt 17.6606 13.5272 15.9259
Au 7.51075 8.66687 17.4559
Pt 18.8022 15.2025 7.81902
Au 9.71278 16.8311 26.2297
Pt 14.5029 13.6885 12.3063
Au 15.381 4.59607 16.9231
Pt 10.4319 12.2174 23.016
Au 18.7393 17.2992 25.947
Pt 18.0855 11.5562 20.1283
Au 18.2165 5.07468 16.6641
Pt 19.5002 6.86499 14.9181
Au 12.9926 4.65735 15.295
Pt 21.7578 14.5306 7.90045
Au 7.99805 12.2212 5.8199
Pt 16.609 11.3655 14.8556
Pt 21.9327 14.6441 20.6697
Au 12.2544 11.8571 27.1041
Au 12.9828 16.5647 3.60651
Pt 6.73105 17.8875 15.1334
Au 23.8965 20.9298 9.99283
Pt 14.5294 18.7582 10.3183
Au 21.9449 5.84796 19.8481
Pt 19.5368 16.8025 9.83115
Au 13.8449 27.7437 14.0772
Pt 17.0161 13.748 6.38932
Au 21.0028 16.6276 24.5324
Pt 19.8795 13.3886 6.14102
Au 20.6529 6.7693 9.53125
Pt 19.9438 22.8116 9.59052
Au 18.6783 14.6568 26.3744
Pt 13.1844 18.9594 7.95681
Au 22.8076 14.8726 23.2426
Pt 11.042 15.377 15.1494
Au 18.7824 25.4857 19.9321
Pt 21.297 22.2839 13.095
Au 6.1726 17.2992 22.008
Pt 20.5068 16.4303 21.9096
Au 23.6508 7.85557 20.6123
Pt 11.771 11.0282 15.8376
Au 18.5011 26.522 10.6406
Au 24.3136 13.7816 9.44915
Pt 18.5056 17.6846 20.4973
Au 16.0428 21.4281 23.5406
Pt 13.94 11.3819 13.9392
Au 26.2181 13.8814 12.5524
Pt 10.7332 19.4365 9.16885
Au 24.7075 9.1201 10.6671
Pt 16.7333 7.06821 20.5483
Au 12.1048 23.6049 22.9225
Pt 12.9961 18.2512 20.0499
Au 21.1537 14.0226 25.267
Pt 14.9017 17.7994 15.4174
Au 7.57888 19.3327 8.29355
Pt 21.9508 8.24726 18.5525
Pt 17.6015 12.9241 10.7125
Pt 9.57271 13.2734 16.0307
Pt 18.4854 9.28611 14.7718
Au 3.21715 15.4088 15.4421
Pt 7.05372 13.0694 14.4966
Au 8.76037 9.8278 7.36005
Pt 14.8822 24.7003 11.9384
Au 17.3195 19.5727 25.2867
Pt 19.7307 25.4566 17.1044
Au 24.0321 19.0005 19.2
Pt 18.4577 10.1302 23.6137
Au 15.9102 24.2443 8.05722
Pt 10.2728 17.5977 23.6832
Pt 17.0862 18.0135 17.5926
Pt 13.8022 21.9155 16.6818
Au 9.75635 18.7571 6.64629
Pt 13.5957 16.6045 6.2771
Au 18.1738 4.95776 13.6119
Pt 9.74439 7.2232 14.0135
Au 17.7395 27.1498 17.8264
Pt 7.48703 14.9068 9.41585
Au 5.97993 12.3646 21.4873
Pt 13.6402 9.20371 15.3993
Au 24.935 9.71634 15.2693
Pt 11.8274 14.3936 7.42781
Au 23.986 7.53653 13.707
Pt 8.49383 15.4787 11.7977
Au 25.665 16.3517 13.621
Pt 17.5235 17.8069 14.8746
Au 16.5736 7.91397 23.2529
Pt 6.33813 13.7708 11.852
Au 22.0483 5.91536 14.805
Pt 21.6831 14.3879 18.0175
Pt 20.6342 13.3698 22.6084
Pt 12.9949 11.2669 22.1864
Au 22.6123 7.6091 11.3765
Au 13.5299 4.81568 12.3122
Pt 19.554 13.2324 12.4968
Au 22.0466 12.3237 4.9459
Pt 16.8481 15.5865 22.0469
Au 17.3864 25.2537 13.0285
Pt 18.4674 7.97433 17.2031
Au 18.2406 5.54041 10.819
Pt 8.80306 16.3475 21.8228
Au 6.62081 10.018 19.6205
Pt 16.1771 8.61131 11.108
Au 6.14749 16.9239 7.98154
Pt 9.90558 11.0499 17.6923
Au 19.3373 21.9902 7.09475
Pt 16.073 20.0745 13.7913
Au 4.79131 12.8228 16.2748
Pt 13.5729 20.1604 14.702
Au 24.5348 17.4884 16.773
Pt 16.3112 6.83542 18.0596
Au 15.1211 26.9206 17.0115
Pt 16.3381 22.0177 17.9409
Au 9.07227 21.556 8.76261
Pt 16.9818 17.5129 9.39128
Au 5.2225 10.1731 17.192
Au 12.2497 5.41431 17.9021
Pt 11.9423 20.856 21.3312
Au 22.9506 14.9798 5.37279
Pt 16.6763 6.79814 15.2344
Au 21.2839 18.8455 22.8691
Pt 17.3191 19.7167 21.8316
Au 8.53465 8.09612 22.0529
Pt 10.4292 18.7266 21.3521
Au 16.8997 5.94878 8.42382
Pt 14.5651 14.2009 7.30079
Au 17.564 4.64349 19.4022
Pt 18.6069 20.0946 13.6153
Au 14.7924 23.8576 23.5969
Au 7.72444 24.0291 14.3978
Pt 14.9679 22.7033 10.1842
Au 4.26179 17.8731 11.3609
Au 12.1483 11.9559 3.24856
Pt 10.6901 9.70792 22.1287
Au 14.9112 4.77574 19.7019
Pt 18.2013 20.3363 16.2678
Au 14.6916 18.4054 4.42133
