561
Atoms. Timestep: 20728
Pt 16.4177 9.35869 20.4291
Au 8.1969 20.726 8.96944
Pt 13.3629 11.7986 17.8381
Au 3.32854 14.0768 13.6601
Pt 7.6653 11.7746 8.75379
Pt 11.7593 6.76254 9.32524
Au 20.9229 21.3222 23.6537
Pt 11.1708 17.1511 20.7087
Au 3.53782 14.472 16.4229
Pt 8.99372 10.3108 19.4554
Au 7.66552 24.6999 15.493
Pt 12.8448 15.3633 21.7013
Au 15.6486 6.33633 6.84951
Pt 18.0505 20.3092 21.3306
Pt 13.8058 24.1062 12.5839
Au 17.3997 21.2422 6.18726
Au 20.4674 3.99857 16.2866
Pt 16.3415 23.2452 13.3535
Au 14.4173 12.5557 4.44938
Pt 8.17605 19.6269 14.8569
Au 10.1655 22.5748 24.338
Pt 6.94413 20.0933 19.5104
Au 6.69686 18.5151 21.8914
Pt 16.9588 18.2429 22.5959
Au 7.82676 17.5597 24.2238
Pt 17.1484 15.6518 21.8091
Au 5.67196 22.6492 15.7894
Au 23.1719 6.24229 19.7453
Pt 6.46432 15.5462 11.9965
Au 8.97935 20.1497 24.5749
Pt 23.9667 18.2256 16.0501
Au 23.2151 6.35425 12.0726
Pt 6.46605 16.6575 19.7455
Au 18.6958 3.40526 10.6347
Au 4.70027 18.6887 18.396
Pt 9.76385 16.4585 8.04363
Pt 11.5913 13.3366 16.6859
Pt 13.2028 16.0455 11.1114
Pt 16.8833 8.08463 16.0932
Pt 9.82676 13.4253 9.21661
Pt 13.8771 9.60323 10.8713
Pt 13.6249 18.9987 11.4567
Au 9.52035 5.71617 18.4099
Pt 16.3667 9.62129 9.81709
Au 11.708 12.4165 4.99199
Pt 11.1224 22.1002 17.4276
Au 23.0122 8.74776 21.21
Pt 21.5052 16.8702 22.0495
Au 4.29092 13.8772 10.921
Pt 23.4934 18.4712 18.604
Au 9.03564 13.4798 4.73861
Pt 12.6044 9.37953 17.9853
Au 9.01097 15.4939 25.4003
Pt 10.7668 20.1005 15.9033
Au 19.9508 23.8945 22.978
Pt 9.88495 10.1183 21.9659
Pt 21.796 17.4873 14.7586
Pt 9.19509 11.68 10.9816
Au 22.3603 9.48822 7.08473
Au 19.3336 3.82169 13.3476
Pt 16.571 5.56637 16.7118
Au 6.89388 12.094 6.22881
Pt 17.6996 21.2035 14.4938
Au 11.2241 24.6543 23.0748
Pt 8.03178 9.90268 16.9389
Au 21.0852 4.75288 11.3439
Pt 7.77836 17.6948 10.4333
Au 4.74061 20.1968 20.8053
Pt 9.17969 16.1662 19.1307
Au 16.8871 25.3182 22.2323
Pt 19.7782 15.4173 20.8322
Au 5.49293 9.09955 16.5105
Pt 16.3611 24.0922 19.8733
Au 18.7113 6.36743 7.09445
Pt 20.8779 11.9807 22.494
Au 9.35116 25.134 13.1947
Pt 18.4826 13.1021 21.9069
Au 21.1823 18.4716 24.2763
Pt 9.51701 11.8716 6.82678
Pt 10.0959 21.2368 13.6917
Au 5.72694 13.7584 8.40835
Au 3.95868 11.8389 15.0805
Pt 18.0591 22.1093 19.1779
Au 22.8255 21.6145 21.6853
Pt 13.6853 13.5136 6.92938
Au 13.9805 12.8694 15.1755
Pt 13.5175 11.657 12.6924
Au 6.40909 7.02724 14.971
Pt 5.81888 13.1998 13.3243
Au 6.87661 16.5277 7.47101
Pt 14.1599 7.81023 19.6707
Au 12.0033 25.8519 20.8527
Pt 5.76159 18.4068 15.5509
Au 21.0625 25.7943 13.368
Pt 10.7768 14.2868 6.6816
Au 13.5932 5.30646 20.6565
Pt 9.03624 14.1621 12.0212
Au 9.69219 24.597 10.5862
Pt 18.1673 10.8788 11.4976
Au 3.83001 16.2863 12.1693
Pt 6.00971 13.6248 15.9948
Au 26.2956 17.0068 15.3076
Au 26.4511 18.7511 12.9262
Pt 20.3311 12.9647 19.9359
Au 20.0865 25.6531 16.012
Pt 19.8687 9.39626 12.8217
Au 5.15146 11.333 9.81173
Pt 8.97818 18.6179 20.1355
Au 3.63083 16.1012 18.7843
Pt 9.68958 22.9386 21.6321
Au 15.3748 9.4608 22.8277
Pt 6.58692 18.0997 12.9934
Au 13.5471 17.1813 13.676
Pt 10.0151 18.9466 9.61396
Au 4.85925 21.6878 18.4915
Pt 9.85204 10.1649 15.114
Au 19.8972 15.4579 25.7148
Pt 14.149 5.33208 17.9971
Au 6.24753 15.7683 22.7882
Au 7.01698 9.28075 9.53255
Pt 23.9059 18.2429 13.3096
Au 19.4553 24.5235 9.08078
Au 6.70786 23.7459 18.047
Pt 6.57693 10.798 12.1673
Au 8.82885 22.1067 11.362
Pt 21.3412 19.0857 16.9733
Au 25.5395 17.5222 20.2032
Pt 6.59052 20.4457 16.9307
Au 24.0706 7.49713 17.4438
Pt 20.4391 14.496 23.2249
Au 19.1336 25.8018 11.4812
Au 11.7085 15.5539 26.0516
Pt 14.2153 7.57804 16.6846
Pt 16.0731 11.7942 6.66746
Pt 13.9662 10.4599 20.2029
Pt 11.7551 8.20801 15.7595
Pt 11.3917 11.5057 20.0514
Pt 18.7898 8.49952 19.7977
Pt 11.9027 11.265 10.3607
Pt 10.0608 15.3115 15.5162
Pt 11.5434 8.75464 20.3515
Pt 13.731 24.0856 19.5912
Pt 10.5739 11.0448 17.5025
Au 15.6358 3.11886 17.3606
Au 6.48801 22.5862 20.6119
Pt 14.9951 5.49216 9.87641
Au 14.0424 2.44419 12.1608
Pt 11.2675 15.5951 13.13
Au 15.3978 19.6495 5.25166
Pt 8.96512 12.6819 16.0516
Au 13.2126 7.85334 6.42281
Pt 23.0307 20.3672 14.9486
Au 14.4154 15.6055 26.6477
Pt 12.3249 18.2656 23.3217
Au 4.68691 14.641 20.9694
Pt 12.593 10.1946 22.3766
Au 25.2796 11.3139 13.6979
Pt 14.8935 18.6384 24.1543
Au 10.7062 17.9465 4.79778
Pt 15.3365 9.62876 17.9727
Au 6.66341 20.3869 11.2466
Pt 13.5509 10.6521 6.25479
Au 9.12486 7.35553 15.6805
Pt 20.2843 14.5065 11.6011
Pt 15.6011 17.0168 6.24808
Au 18.2287 10.5987 5.42516
Au 10.4583 22.3863 9.22444
Pt 15.779 9.99011 12.7505
Au 5.68714 20.618 13.8787
Pt 8.80129 16.6875 12.7415
Au 24.1737 8.78262 12.7262
Pt 6.61669 11.272 15.1774
Au 25.2701 17.9144 10.5938
Pt 19.8789 9.68952 17.7023
Au 16.3964 16.865 19.3779
Pt 8.55975 11.9609 13.5067
Au 12.9875 13.096 26.3282
Pt 11.3593 20.6805 11.3549
Au 26.1472 18.6984 17.7281
Pt 12.7739 15.2899 15.3977
Au 9.96334 5.08976 14.3136
Pt 20.1645 21.9484 21.1025
Au 8.88747 16.1334 5.48335
Pt 12.3298 17.5864 9.3096
Au 12.96 22.9054 24.3761
Pt 22.284 14.2731 21.3639
Pt 10.2497 16.0966 10.5606
Au 6.20317 18.8766 8.74175
Au 6.36508 9.60099 19.141
Pt 9.85011 17.6549 16.931
Au 16.514 12.8881 16.1057
Pt 10.3981 17.9679 14.365
Au 15.0911 17.1238 16.839
Pt 9.78644 10.0451 8.98298
Au 16.3282 20.8461 23.4799
Pt 17.2409 5.43128 11.438
Au 16.0829 19.7593 16.4848
Pt 22.5216 10.6458 13.9363
Au 16.4018 25.7211 12.4608
Pt 21.4743 7.90076 18.6435
Au 15.4238 19.4133 13.7708
Pt 14.4232 19.1047 18.6917
Au 20.9505 7.47082 8.30497
Pt 11.0188 20.696 22.7094
Au 16.8788 11.612 24.0679
Pt 9.79918 13.419 18.6746
Au 13.3663 7.56652 22.2372
Pt 21.0284 17.648 19.3654
Pt 12.0196 25.1569 14.2464
Au 14.645 23.9701 8.29831
Au 7.64462 22.5874 13.7189
Pt 8.95844 19.3858 12.1956
Au 18.3637 4.15526 18.076
Pt 10.5452 20.8182 20.1703
Au 6.43473 12.9638 22.652
Pt 12.5001 22.4917 14.7673
Au 4.34238 17.4628 21.0446
Pt 15.4747 21.6434 18.9544
Au 17.3218 8.01013 5.42546
Pt 11.9401 14.8946 8.90144
Au 23.8829 19.5961 8.85857
Pt 19.6914 21.8217 9.70295
Au 15.8239 17.9614 26.6052
Pt 16.8638 16.1325 8.56775
Au 15.936 17.2371 12.2783
Pt 11.2764 18.0548 11.9162
Au 25.7286 16.1218 12.637
Pt 20.0851 15.3039 18.2276
Au 20.9553 12.9331 25.2919
Pt 18.2664 16.5532 10.8216
Au 20.8575 9.23321 22.9249
Au 18.415 12.8759 26.24
Pt 7.85957 16.9358 15.2647
Au 20.5976 19.3507 5.95402
Pt 5.68597 16.2249 17.0302
Au 12.7243 4.30131 10.6033
Pt 19.7226 19.996 19.1829
Au 10.1001 26.2574 15.7881
Pt 19.0099 23.7562 13.7074
Au 4.7716 18.5429 11.0698
Pt 16.3037 16.3851 24.3787
Au 23.7162 22.9861 10.9274
Pt 13.3128 20.461 16.7059
Au 10.4167 26.3443 18.6237
Pt 20.698 19.3812 21.6732
Au 14.5069 20.8356 25.6562
Pt 18.0628 23.3142 11.1985
Au 10.1791 7.76985 7.46165
Au 3.97014 20.2755 16.1405
Pt 17.273 24.7358 15.4423
Pt 12.4629 6.39401 13.8462
Pt 14.3015 7.81743 8.93998
Pt 10.4138 14.4989 20.9868
Pt 11.2483 8.71292 10.9928
Pt 14.6353 4.99131 12.5542
Pt 17.0932 19.4794 18.9749
Pt 16.0789 14.4549 6.3085
Pt 20.7914 10.1098 20.3153
Pt 22.3064 14.3325 9.61744
Pt 23.1552 16.2639 19.9161
Pt 11.8388 5.62104 16.301
Pt 21.7118 7.93254 13.8037
Au 17.2223 23.6857 7.49093
Au 24.9727 22.0221 13.5432
Pt 12.2874 9.37532 8.45366
Au 3.34964 17.2889 16.168
Pt 22.3392 21.8555 12.9545
Au 12.9542 3.11389 16.5968
Pt 12.3633 10.8113 15.3757
Au 10.202 20.9331 6.96007
Pt 18.4956 13.0661 6.71644
Au 17.5836 10.5301 16.8656
Pt 15.0025 22.4432 21.4871
Au 26.0748 14.1528 14.5546
Pt 15.7169 9.20042 7.19655
Au 8.17713 6.60211 12.8004
Pt 10.8873 12.4855 22.6297
Au 23.7389 14.8409 7.2749
Pt 20.8411 16.5277 10.0826
Au 24.4477 20.3392 11.5677
Pt 8.74969 14.1778 23.098
Au 15.8125 3.06499 10.2729
Pt 17.6199 22.7543 21.9896
Pt 22.0176 10.163 11.5184
Au 23.1807 12.124 6.58041
Au 15.8122 12.232 18.7561
Pt 21.3718 18.6559 8.47251
Au 3.95219 11.5333 12.3248
Pt 17.3302 19.0404 10.1847
Au 12.3582 3.70954 13.8977
Pt 8.16281 14.175 7.27014
Au 18.9097 13.3896 14.6274
Pt 10.0174 8.392 17.9735
Au 24.8624 9.24558 15.4334
Pt 12.5189 16.2981 6.62399
Au 15.0532 10.2255 15.3277
Pt 16.5187 7.23553 18.7237
Au 19.0923 12.8917 17.3465
Pt 11.4502 15.7867 17.8695
Au 15.6407 13.4197 25.7084
Pt 18.987 24.4474 20.5431
Au 16.8151 2.93893 12.7349
Pt 18.535 10.4458 22.0334
Au 10.344 13.1328 25.2838
Pt 13.3815 12.6712 21.6347
Pt 21.765 21.6977 16.9607
Au 10.9965 9.82894 5.98523
Au 7.34528 7.36732 17.8222
Pt 18.9892 17.5096 8.28045
Au 21.9097 21.0988 7.62496
Pt 15.7282 7.5873 11.5231
Au 21.8806 23.3855 9.01532
Pt 15.7431 14.9728 10.9479
Au 14.0238 24.8151 22.4809
Pt 13.7098 13.3682 9.98486
Au 17.9442 15.4614 13.2279
Pt 20.4961 23.0273 18.742
Au 13.5208 16.6597 19.2595
Pt 10.8002 15.9626 23.3734
Au 18.4399 5.87009 20.3305
Pt 21.5622 11.6698 17.9827
Au 5.24092 16.2684 9.66547
Pt 5.50787 14.1198 18.5227
Au 15.8657 27.0341 15.1735
Pt 18.6842 17.7682 20.6169
Au 7.20496 10.1282 21.7156
Pt 9.77304 18.4738 22.6399
Pt 14.841 21.3199 7.42491
Au 23.4182 24.3908 13.1927
Au 13.1054 26.6449 18.4977
Pt 18.1506 24.6057 17.9742
Au 20.7861 5.2508 18.8087
Pt 21.9479 20.8745 10.4684
Au 25.1578 13.4776 11.9452
Pt 19.888 19.0851 10.6398
Au 17.3247 15.3638 17.0295
Pt 14.011 21.5116 12.41
Au 8.17282 20.8163 21.9835
Pt 14.3587 5.1567 15.3113
Au 11.162 10.5825 24.5476
Pt 12.3715 20.3426 8.85795
Au 19.6503 15.9479 15.5597
Pt 8.45979 22.0128 16.2617
Au 4.85521 11.5753 17.622
Pt 13.929 18.657 7.45246
Au 12.6867 20.4048 5.75759
Pt 18.4674 15.7174 6.4652
Au 21.9503 14.5272 5.28926
Pt 20.7591 23.4381 11.6852
Pt 14.4207 11.1651 8.67832
Au 8.51845 18.6795 7.05807
Au 25.1158 15.2997 9.95984
Pt 19.0293 20.0326 8.00497
Au 20.3638 25.9144 18.8057
Pt 12.059 24.6523 16.9343
Au 24.3814 20.8296 17.3712
Pt 7.43268 18.0144 17.775
Au 3.83508 18.5135 13.7315
Pt 20.3899 21.1736 14.7519
Au 24.8776 20.3592 19.9973
Pt 13.6233 20.7029 23.0258
Au 24.5963 12.8698 9.03239
Pt 20.1143 10.9129 7.47674
Au 14.1379 15.2526 4.58865
Pt 21.4722 23.57 14.8316
Au 19.4203 10.9175 24.5455
Pt 8.54858 16.3968 21.7011
Au 7.94581 5.08947 16.2388
Pt 17.112 21.6219 9.09078
Au 11.7763 20.4205 25.2735
Pt 16.6713 22.5759 16.8257
Pt 13.2224 6.97784 11.4603
Pt 23.5174 11.4743 16.2253
Pt 7.96831 14.9078 17.2725
Pt 11.131 13.0869 14.0954
Pt 7.44622 12.2212 18.2231
Pt 19.2684 5.96353 9.81368
Pt 11.8469 12.0247 7.90727
Pt 16.7576 5.41524 14.0095
Au 15.5327 27.7132 17.9144
Pt 20.1886 12.3139 10.1287
Au 19.3961 14.3029 4.37964
Pt 12.0327 6.81429 18.5611
Au 23.221 8.55774 9.72262
Pt 17.531 8.04591 13.5138
Au 10.6716 5.80004 11.6972
Pt 5.32144 15.8786 14.4169
Au 13.3927 17.9072 4.67521
Pt 7.4692 14.3351 20.2934
Au 23.8035 6.70485 14.8607
Pt 15.6684 11.9674 10.9065
Au 8.81031 7.84352 20.4871
Pt 21.2412 6.73614 16.244
Au 23.3664 18.7334 21.5651
Pt 20.3334 12.0438 12.8651
Au 26.7796 14.551 17.2418
Pt 23.2682 16.8522 8.9615
Pt 23.8651 15.8497 14.662
Pt 7.68238 9.13142 14.0894
Au 11.3635 15.2815 4.31692
Au 18.0217 18.3483 5.55865
Pt 13.7827 14.258 12.8331
Au 17.0068 15.8546 4.20296
Pt 18.3551 8.18439 10.9535
Au 21.6872 5.10407 14.0697
Pt 10.3878 8.06115 13.3961
Au 20.4093 16.837 4.99789
Pt 18.9176 5.92013 15.2862
Au 18.2633 11.248 19.5177
Pt 19.5023 18.7207 15.0074
Au 15.5312 15.2897 14.6904
Pt 22.7396 11.8116 20.5137
Au 17.1576 17.5359 15.0543
Pt 21.3154 19.4364 12.9812
Au 26.1876 12.0229 16.293
Pt 15.5014 23.1658 10.7151
Au 13.9552 26.7858 13.1834
Pt 14.6984 17.1815 21.742
Au 14.9925 2.68252 14.6982
Pt 8.69519 12.3095 21.0425
Pt 21.0374 13.3494 7.57374
Au 5.65977 12.0107 20.3009
Au 9.01321 7.28339 9.91884
Pt 17.8995 11.5534 8.8577
Au 25.8129 19.9558 15.1681
Pt 18.3258 9.00222 7.9215
Au 22.0992 25.4103 10.8541
Pt 9.37617 24.2225 17.5012
Au 17.7355 14.1984 19.4802
Pt 19.4825 6.46194 12.7968
Au 16.3017 12.8761 13.3298
Pt 16.7178 20.9832 11.8555
Au 24.8137 13.0899 21.7329
Pt 8.63481 22.2463 19.128
Au 25.8687 9.93733 17.9741
Pt 16.9334 7.10006 9.04788
Au 23.2837 10.8656 22.9557
Pt 10.1652 23.4938 15.0688
Au 13.0829 18.1195 26.1342
Pt 13.9475 22.9551 17.1843
Au 25.2232 10.6191 20.6691
Pt 11.2471 18.545 7.20441
Pt 24.4317 12.3212 18.5891
Au 6.17301 8.13692 11.898
Au 17.6969 3.27595 15.5031
Pt 18.8463 19.637 23.7633
Au 4.88378 9.43966 13.8991
Pt 15.1809 14.1597 23.1195
Au 12.5712 17.8707 16.2311
Pt 21.5139 13.6744 16.1594
Au 14.448 14.4788 17.5007
Pt 19.4173 21.2344 12.2995
Au 15.0928 14.483 20.3375
Pt 12.7514 19.2584 20.9308
Au 12.5593 19.8068 13.9254
Pt 19.3254 22.9971 16.3398
Au 18.756 17.7305 17.627
Pt 23.035 15.778 11.8744
Au 11.7562 25.9236 11.6826
Pt 15.4397 25.1511 17.5667
Au 19.6799 22.5491 7.0864
Pt 18.1481 18.8472 12.7392
Au 16.8759 25.3024 9.6944
Pt 6.87872 13.0946 10.8899
Au 23.4117 22.822 19.0957
Pt 14.3775 15.6237 8.38984
Au 23.0998 13.4845 23.7899
Au 23.9344 23.0194 15.7842
Pt 19.0785 14.561 8.9661
Au 14.0157 11.5946 24.1994
Pt 11.3128 23.2171 12.3212
Au 13.2102 26.9644 15.8746
Pt 11.093 23.6957 19.4897
Au 16.0282 11.936 21.5181
Pt 12.9366 21.4362 19.3157
Au 14.9728 26.4223 20.4394
Pt 14.5535 24.5671 15.0954
Au 20.0544 8.59822 5.89865
Pt 7.84597 14.5161 14.3136
Au 12.4465 22.6645 7.33031
Pt 16.5304 19.0656 7.73692
Pt 14.8646 20.5166 9.84436
Pt 17.9565 10.7395 14.2026
Pt 11.5139 13.5674 11.4294
Au 18.4705 17.7967 25.7192
Pt 22.5245 14.0951 18.7063
Au 13.3225 5.35042 7.83483
Pt 13.0312 9.04484 13.3781
Au 17.2443 4.48505 8.49438
Pt 15.0963 17.7348 9.72589
Au 15.6266 10.0664 4.58462
Pt 21.0635 15.9472 7.49516
Au 17.5789 26.6565 19.6618
Pt 12.3764 22.7049 21.6229
Pt 13.6575 16.2161 24.1561
Pt 21.1021 7.57256 11.0783
Au 8.08692 9.62221 6.95319
Pt 18.9508 6.97093 17.6707
Au 25.4618 14.6945 19.7262
Pt 19.4659 8.60355 15.3267
Au 25.188 8.0585 19.814
Pt 10.9586 10.7515 12.8087
Au 17.1905 20.1841 25.9175
Pt 19.1109 16.8388 23.3059
Au 16.1071 4.63834 19.6548
Pt 22.1509 20.5048 19.4015
Au 11.7741 4.14245 18.8831
Pt 20.4465 11.2025 15.4766
Au 18.4551 22.2685 24.5425
Pt 12.5576 13.9018 23.9248
Au 18.3059 7.88293 22.3931
Pt 16.2357 13.5183 8.74378
Au 24.5787 10.8718 10.955
Pt 23.2806 9.82858 18.685
Pt 23.4385 13.2142 14.1615
Pt 14.9912 7.50904 14.1272
Au 22.9659 5.03078 17.1207
Au 20.7095 11.9944 5.14416
Pt 22.3427 11.3572 9.128
Au 20.7715 7.09462 21.1372
Pt 22.5556 18.3025 11.0366
Au 8.55312 24.8038 20.0727
Pt 17.9257 13.4918 11.1501
Au 17.2697 15.4506 26.6919
Pt 24.1763 14.0601 16.6082
Au 17.089 12.8862 4.26931
Pt 8.72695 9.2531 11.6604
Au 17.8849 14.2956 24.1453
Pt 22.2355 16.2857 17.0937
Au 10.4028 17.9292 25.3615
Pt 12.4942 13.8536 19.3776
Au 24.6349 10.332 8.2156
Pt 15.3398 19.7853 21.0862
Au 10.9643 6.12298 20.9348
Pt 22.1704 9.18358 16.222
Au 14.2627 25.7293 10.4898
Pt 14.9663 21.7685 14.9605
Au 18.4705 26.6788 14.0369
Pt 13.0015 22.6154 10.2032
Au 17.9751 27.0915 16.937
Au 12.0213 24.7986 9.16525
Pt 24.8432 16.3159 17.6752
Au 24.2244 15.9259 22.3534
Pt 7.84058 15.2082 9.68318
Au 22.2403 24.5509 17.3217
Pt 20.2873 17.0207 12.6648
Au 15.7674 23.3886 24.0617
Pt 20.1659 9.67501 9.75806
Au 15.9648 6.80483 21.4852
Pt 11.6111 18.9195 18.5641
Au 26.9176 12.3774 19.0303
Pt 9.17216 20.0412 17.9019
Au 22.7911 17.5969 6.37204
Au 22.3288 15.9948 24.4642
Pt 18.7403 20.5043 16.8765
Au 8.52694 11.5197 23.8484
Au 21.74 24.1816 20.8223
Pt 22.5768 12.819 11.6963
Au 10.207 3.64066 16.6552
Pt 21.4365 14.8205 13.8373
Au 10.8388 7.98751 22.9867
