561
Atoms. Timestep: 20588
Pt 11.8781 8.86805 15.8855
Au 3.71014 14.8056 16.1058
Pt 9.18542 12.0455 18.8078
Au 5.23504 14.0278 8.90105
Pt 7.50338 19.6181 10.2162
Pt 9.42476 14.881 19.8779
Au 6.20054 12.8759 6.58436
Pt 13.5939 13.2809 22.8775
Au 5.53074 21.7686 14.0885
Pt 9.25762 12.556 21.4277
Au 22.0279 24.7523 12.7848
Pt 5.69731 11.211 13.3775
Au 5.78479 9.19457 18.3185
Pt 18.0251 12.7188 22.9089
Pt 7.47172 14.423 22.0994
Au 17.9187 26.4623 11.154
Au 10.4629 6.05748 19.4623
Pt 5.73937 13.78 13.2454
Au 12.7863 10.0758 4.69737
Pt 7.89773 17.5019 15.1933
Au 14.2961 25.1207 21.1668
Pt 9.09388 23.0766 14.6492
Au 5.65075 13.7026 23.8235
Pt 13.2759 17.4539 24.2918
Au 10.5064 21.842 21.7594
Pt 11.3791 16.934 21.0127
Au 14.7143 27.2975 15.9603
Au 18.6191 6.52384 21.9461
Pt 13.4514 25.9711 13.7483
Au 4.99573 20.4476 16.4482
Pt 15.1154 24.046 12.5966
Au 12.4109 14.5142 27.0811
Pt 5.7563 16.1826 14.0568
Au 9.13919 23.3907 8.88832
Au 11.4045 21.5597 24.4334
Pt 14.617 15.6472 8.13519
Pt 9.62037 19.0061 21.4245
Pt 9.52941 16.428 8.24164
Pt 16.6752 8.82891 18.049
Pt 9.5412 14.7029 10.1296
Pt 11.6471 8.6437 8.99454
Pt 10.9483 21.3639 8.10524
Au 11.1827 6.65579 22.032
Pt 13.1313 17.7531 9.11664
Au 5.35114 11.4014 8.80579
Pt 6.15295 15.8562 16.5883
Au 6.8936 18.8448 22.1948
Pt 13.6231 12.9607 8.57494
Au 10.6747 8.60153 6.39558
Pt 14.9462 9.81905 19.666
Au 3.33806 15.0937 13.4297
Pt 12.8188 10.1994 18.2376
Au 8.28819 17.6589 24.3859
Pt 10.5635 8.74784 18.3578
Au 26.3232 14.908 19.0132
Pt 21.3222 13.4064 18.469
Pt 19.4941 19.6007 22.9522
Pt 12.0838 15.3363 8.43825
Au 19.8937 9.50919 6.46469
Au 8.65776 8.27501 8.23619
Pt 15.9198 14.3666 22.4056
Au 12.0317 6.27912 7.77955
Pt 5.96338 13.1355 15.685
Au 7.54883 21.1242 20.8989
Pt 10.1082 18.9542 14.6524
Au 12.985 15.1446 3.04277
Pt 9.39352 12.1492 10.8063
Au 9.02675 20.26 23.6431
Pt 6.85829 15.8581 19.6196
Au 16.0337 3.28272 14.0209
Pt 9.27767 8.02745 12.8536
Au 3.77674 12.1713 17.2185
Pt 21.6522 10.8692 17.1106
Au 9.95751 6.55136 9.84958
Pt 14.5111 8.84614 22.0121
Au 6.11538 16.3654 23.2872
Pt 25.9905 13.6941 16.7277
Au 22.3284 18.1999 24.1641
Pt 24.1411 9.78903 15.3195
Pt 6.469 11.6554 17.708
Au 4.85051 10.1529 15.8035
Au 11.5043 23.9153 7.32237
Pt 10.6764 16.9249 23.4906
Au 12.4451 21.7204 5.70352
Pt 15.9405 15.9827 5.79664
Au 13.8729 15.7941 11.7164
Pt 11.3577 16.6182 10.7475
Au 18.7906 3.17758 15.1868
Pt 11.7417 22.9338 9.94582
Au 10.6721 25.4138 9.93764
Pt 8.58805 16.6756 21.7213
Au 18.6611 25.0029 8.97328
Pt 13.7136 22.1385 8.18117
Au 6.74116 22.8678 16.4207
Pt 10.3345 14.0844 17.411
Au 16.3752 20.6147 25.9961
Pt 8.86695 17.4929 10.5481
Au 4.81321 11.6318 19.8265
Pt 13.0822 6.16718 15.8417
Au 14.6626 26.9721 18.9237
Pt 14.5515 15.055 25.0141
Au 9.63726 22.434 6.13841
Au 23.909 16.6586 7.88977
Pt 16.1831 12.0586 8.5492
Au 17.748 13.9778 4.99652
Pt 15.2409 19.3896 23.6977
Au 8.29954 20.7703 7.91652
Pt 7.99061 10.2876 12.3189
Au 3.57643 19.9014 14.0875
Pt 6.6741 17.4717 11.9937
Au 3.57654 12.4951 14.4292
Pt 8.07806 14.7945 14.8503
Au 12.192 13.8721 10.7688
Pt 14.1764 20.4992 18.7577
Au 13.1151 5.54145 20.4803
Pt 9.71311 14.5079 23.3459
Au 17.8629 18.4076 27.1228
Pt 20.5194 11.147 19.7339
Au 6.5029 8.27676 13.3993
Au 4.86958 15.4191 11.1901
Pt 13.2307 22.641 17.4219
Au 21.6495 23.1091 19.318
Au 12.7395 23.5359 23.0653
Pt 13.523 18.5051 11.7224
Au 8.452 25.0414 16.3923
Pt 6.43983 18.3874 17.2067
Au 15.0543 24.6624 23.8814
Pt 11.4762 21.6895 15.3538
Au 10.1169 15.95 25.9853
Pt 13.4189 20.9295 22.4579
Au 4.42343 16.8894 18.3651
Au 11.7561 10.4101 25.2997
Pt 15.3674 22.7419 22.0827
Pt 14.0557 10.2008 8.92151
Pt 10.8576 11.1776 16.9009
Pt 7.87316 13.0655 8.74582
Pt 13.8338 9.14864 11.3573
Pt 11.9051 7.29597 11.5057
Pt 17.2453 11.2689 18.9599
Pt 13.0714 11.2289 21.0654
Pt 14.6459 12.252 18.8345
Pt 9.14027 19.1676 17.0488
Pt 18.282 13.4665 9.90119
Au 12.7784 4.75838 13.0532
Au 17.69 13.6753 26.5236
Pt 10.5088 14.9719 6.33977
Au 13.6732 12.5459 3.93666
Pt 10.2677 14.5465 12.6586
Au 7.50743 7.86539 10.7914
Pt 11.6801 9.44383 12.8826
Au 5.42027 20.1622 11.8154
Pt 12.3983 13.0974 6.18522
Au 16.3784 7.60013 23.6476
Pt 13.193 12.6034 25.4107
Au 9.09293 10.1828 22.7593
Pt 16.6334 6.88636 9.94966
Au 20.6415 3.68967 17.3365
Pt 11.6663 19.2205 23.0124
Au 10.0727 5.34796 12.3294
Pt 23.1819 11.622 19.1503
Au 6.7546 24.1793 13.9274
Pt 11.7651 12.6637 19.2348
Au 20.7069 10.6638 24.683
Pt 20.4304 11.6503 22.3031
Pt 12.8216 19.7292 7.44819
Au 22.186 4.26744 12.1744
Au 4.11704 12.5816 11.416
Pt 17.1132 14.675 7.77421
Au 20.2228 26.0707 15.7439
Pt 16.8841 18.4956 5.48924
Au 14.6169 6.32797 6.53187
Pt 8.91642 12.9119 6.39987
Au 14.7978 20.1897 4.77032
Pt 13.4466 15.876 22.2732
Au 19.8432 16.9787 16.1816
Pt 8.55935 12.3058 16.0806
Au 15.0663 10.9899 16.4707
Pt 7.36812 10.2918 15.0699
Au 17.0867 5.8211 7.46611
Pt 11.2382 12.0254 23.1567
Au 13.7274 3.65834 15.5346
Pt 16.7285 16.2101 26.0307
Au 17.8449 7.86067 5.83476
Pt 7.06075 13.0806 19.9556
Au 26.7632 15.8451 15.5109
Pt 19.1833 13.3033 20.3697
Pt 10.4057 18.8939 8.90044
Au 10.979 16.5123 4.14264
Au 20.0031 3.81244 10.6239
Pt 7.71585 22.02 12.5056
Au 6.94012 22.1821 9.98146
Pt 13.2195 15.5348 5.64852
Au 15.6688 14.2549 10.1769
Pt 7.67435 14.9993 12.0534
Au 10.3236 16.1623 15.6235
Pt 9.70679 10.743 8.18471
Au 19.5213 11.8832 14.5727
Pt 10.5463 17.9753 18.8638
Au 12.8419 11.2105 14.7498
Pt 23.836 12.4712 13.2162
Au 12.0516 15.5103 18.7547
Pt 17.2087 18.2422 21.8587
Au 24.4427 9.56263 17.9989
Pt 17.5995 18.4576 24.5547
Au 22.3462 12.7651 23.8288
Pt 13.9001 10.8582 23.5686
Au 15.8942 6.21129 16.9796
Pt 14.6265 21.9819 24.4944
Pt 12.4486 20.3825 10.1732
Au 19.8936 26.4449 13.0289
Au 10.9176 26.4772 15.2878
Pt 15.5826 17.242 10.2228
Au 13.6886 6.56762 22.9588
Pt 8.1771 19.4337 12.751
Au 5.2879 17.9481 9.83181
Pt 10.1269 21.1495 13.2078
Au 7.41313 18.0999 7.96904
Pt 11.4713 14.1972 21.441
Au 19.5994 5.50408 8.36598
Pt 11.5246 24.1345 13.9963
Au 25.7793 17.6372 11.1045
Pt 15.5192 19.9865 7.3281
Au 14.6779 17.9425 16.7164
Pt 15.7038 20.3675 20.9575
Au 14.6468 17.5216 14.0437
Pt 6.72267 12.5969 11.0606
Au 14.695 15.8738 27.6698
Pt 12.0471 14.8657 24.3905
Au 24.0949 22.1176 18.7842
Pt 22.1692 21.4401 16.8647
Au 12.4729 17.2287 26.7694
Au 8.25516 23.3245 18.8995
Pt 15.7943 22.4205 16.5927
Au 17.0491 26.8998 17.4061
Pt 5.10783 14.1332 18.4037
Au 6.66507 7.83348 16.1008
Pt 17.8733 15.0048 24.1428
Au 19.3841 22.7135 23.1162
Pt 14.2787 17.8516 6.4972
Au 13.3895 24.8815 8.9141
Pt 9.56988 20.6007 19.3666
Au 21.5249 21.0033 23.8342
Pt 17.9385 24.4871 16.0392
Au 21.115 25.835 10.3887
Pt 23.8283 13.9849 18.1536
Au 20.4087 23.5695 16.9942
Pt 11.9546 18.2456 16.4147
Au 7.77328 24.4751 11.2395
Au 8.60771 14.8446 4.50234
Pt 10.0762 23.5464 11.9152
Pt 20.5667 15.0192 10.8432
Pt 23.4736 9.53891 12.5905
Pt 8.37021 9.87634 17.5559
Pt 14.4505 6.38412 11.6368
Pt 16.8818 11.6412 11.3459
Pt 16.74 13.975 19.834
Pt 7.60935 10.3949 9.65303
Pt 18.4249 7.54846 16.4652
Pt 22.0733 9.11568 19.5801
Pt 19.5127 9.35556 18.0658
Pt 11.2859 6.95697 14.1201
Pt 21.2155 6.68812 12.727
Au 15.9837 24.3318 8.2669
Au 15.5114 14.5331 3.54044
Pt 7.10171 15.7687 9.57731
Au 3.99197 17.7348 12.547
Pt 22.4627 8.00265 14.4884
Au 14.8279 4.92551 8.93993
Pt 17.0214 5.56157 12.2768
Au 7.38989 15.2742 6.93001
Pt 13.3728 8.58068 6.8529
Au 13.1107 13.1266 16.7795
Pt 16.9105 8.55468 21.0321
Au 26.7521 18.0616 13.6295
Pt 12.068 10.8527 7.2972
Au 7.5727 10.2307 20.2019
Pt 15.0156 7.16555 19.4044
Au 24.3902 17.6429 22.1589
Pt 20.155 9.17996 15.3805
Au 7.44036 10.5441 6.89574
Pt 19.498 4.84412 13.1557
Au 8.1885 7.31946 18.329
Pt 13.2196 19.87 25.2625
Pt 10.7322 13.0965 8.38743
Au 20.585 21.1691 7.4176
Au 14.7483 15.3155 18.1208
Pt 18.0953 16.151 9.98115
Au 14.6612 17.3541 3.80324
Pt 11.7952 11.095 10.0752
Au 25.3018 7.83014 13.7597
Pt 18.5965 16.3874 6.1052
Au 16.6373 15.9662 12.4163
Pt 14.3405 8.45595 16.7811
Au 25.912 10.6104 13.3387
Pt 24.6754 17.6679 15.2708
Au 17.7167 10.2905 16.1116
Pt 12.6521 7.03509 18.1909
Au 16.213 19.8037 15.2815
Pt 16.473 10.2869 23.3897
Au 26.2685 13.2245 14.1258
Pt 18.1928 16.9589 19.3846
Au 21.346 6.68542 20.963
Pt 15.8756 12.7735 24.5095
Au 8.2123 12.3845 24.1317
Pt 15.6662 11.8732 21.4232
Pt 16.4184 18.7871 12.4349
Au 10.9505 13.5539 4.00179
Au 5.42246 9.87276 11.1355
Pt 18.6295 8.11932 8.51713
Au 23.6003 18.7307 9.9138
Pt 20.9931 10.1008 8.82437
Au 22.1997 18.9686 7.43181
Pt 15.0068 19.802 9.9085
Au 15.544 15.0258 15.1069
Pt 16.7247 17.5491 7.94182
Au 11.9842 16.8521 13.5154
Pt 21.9716 16.4634 22.1331
Au 14.1149 11.8589 11.1977
Pt 16.8294 21.1667 11.4928
Au 19.4536 4.73938 19.9268
Pt 15.5765 16.3467 20.6045
Au 10.7767 13.3064 14.9592
Pt 10.7941 18.9888 11.7969
Au 4.91445 14.3185 21.1762
Pt 8.6572 16.5725 17.7057
Au 16.3931 3.49779 16.6782
Pt 13.9186 14.0953 20.3828
Pt 18.895 17.5429 12.0792
Au 8.89224 17.3377 5.71663
Au 12.421 18.8899 4.64724
Pt 21.1755 22.2556 11.5526
Au 23.1302 10.9812 21.7229
Pt 21.017 21.4068 14.1567
Au 19.0499 11.5543 4.90344
Pt 16.4913 21.7875 8.89834
Au 18.3728 13.8165 12.5705
Pt 14.6789 20.7899 12.9666
Au 12.2873 27.1544 17.5269
Pt 11.328 11.997 12.5366
Au 16.813 12.3864 14.6477
Pt 14.459 22.487 10.6461
Au 18.4678 14.5399 15.316
Pt 7.19809 20.7955 18.1101
Au 10.4229 13.0199 25.6609
Pt 17.7943 19.0314 10.0779
Au 7.72887 14.9696 25.0453
Pt 19.6889 21.2287 18.3653
Au 21.4397 9.05187 22.4225
Pt 17.0346 23.7079 10.7445
Pt 18.0823 18.9836 17.1745
Au 11.1651 26.5246 12.4226
Au 25.6812 8.77111 11.2545
Pt 12.8078 24.6443 11.5679
Au 18.3434 22.8625 7.28082
Pt 21.4423 17.5053 11.538
Au 19.5041 24.1447 20.6159
Pt 13.1967 25.0348 16.142
Au 17.5912 17.291 14.5834
Pt 12.4374 22.0612 12.4379
Au 24.799 14.1803 8.82357
Pt 7.7184 14.1441 17.6701
Au 19.6817 18.9429 5.73185
Pt 20.6402 9.41488 12.8469
Au 12.9981 14.0333 13.7145
Pt 12.5109 19.6371 13.9039
Au 13.0048 15.7603 15.9739
Pt 13.8371 22.8788 14.658
Au 19.4165 15.98 26.2087
Pt 20.3652 19.7663 16.1849
Au 12.2466 26.853 20.2184
Pt 9.37152 21.8506 16.9418
Pt 9.90673 9.34747 10.7126
Pt 20.5204 6.74178 18.333
Pt 10.4053 6.55165 16.7162
Pt 22.3472 16.4885 15.0912
Pt 9.25883 8.48318 15.5369
Pt 22.5382 18.4617 16.8978
Pt 15.0709 5.81208 14.1881
Pt 20.4348 6.23527 15.4388
Au 20.413 14.1794 5.6315
Pt 22.9143 13.5115 10.695
Au 21.861 5.74381 9.92241
Pt 13.7546 8.10923 13.933
Au 16.2839 11.6547 4.44881
Pt 15.9423 8.38751 7.71147
Au 11.6767 4.39197 17.5949
Pt 13.9836 7.42508 9.28657
Au 9.33287 8.17788 20.8104
Pt 9.94386 10.636 14.3553
Au 15.9339 5.91599 21.5374
Pt 20.7029 12.6612 9.33345
Au 6.42695 11.7188 22.1826
Pt 21.9005 15.9047 17.6827
Au 24.8763 13.1331 20.9048
Pt 20.2846 14.4223 22.6113
Au 23.3154 11.7685 8.55243
Pt 17.6945 22.2145 20.8063
Pt 18.1537 15.6154 21.6032
Pt 17.2816 10.4075 6.73556
Au 17.4184 16.575 3.65978
Au 22.6667 5.46015 16.7592
Pt 18.7204 22.1702 12.8634
Au 24.8445 11.3113 10.7892
Pt 19.7564 15.0432 8.16828
Au 23.6739 6.93973 11.6167
Pt 8.32049 12.6118 13.381
Au 23.544 22.3459 13.0661
Pt 22.0428 11.023 14.4434
Au 15.1639 10.4923 13.4706
Pt 12.0287 19.8955 20.3809
Au 23.5753 5.61667 14.1275
Pt 12.4959 8.41609 20.3593
Au 16.9941 16.4023 17.0713
Pt 18.7252 7.47656 13.5196
Au 19.0554 14.8451 17.9973
Pt 16.8411 20.9105 18.3535
Au 14.2221 4.49629 18.2029
Pt 10.6656 10.4935 20.4656
Au 18.8676 9.03722 23.3568
Pt 19.9458 17.8269 21.1376
Pt 18.7439 12.6333 7.28656
Au 10.8625 4.43385 14.9917
Au 8.53287 6.09054 14.6215
Pt 18.1745 20.0548 7.72666
Au 20.9084 23.4692 8.94008
Pt 18.5065 10.7436 9.1028
Au 15.4729 22.5111 6.22305
Pt 18.4121 19.7025 20.1141
Au 21.4438 13.7776 15.6956
Pt 16.2466 9.53365 10.0211
Au 21.1705 13.1281 12.8243
Pt 16.519 22.3531 14.1209
Au 26.062 20.0294 15.2352
Pt 15.4029 22.9904 19.4179
Au 24.6154 7.30173 16.3399
Pt 20.3157 21.3207 21.0142
Au 24.5893 22.1025 16.0184
Pt 7.82146 18.388 19.5745
Au 16.7052 4.52885 19.3176
Pt 17.2248 20.9472 23.1443
Au 18.0806 11.1733 25.3292
Pt 18.4774 21.7877 15.945
Pt 23.7885 12.1661 16.2636
Au 15.1038 3.78305 11.4787
Au 17.4119 4.26249 9.79484
Pt 19.5247 24.197 11.4473
Au 8.97427 25.5767 13.557
Pt 23.6964 16.0256 10.5589
Au 20.2093 15.754 13.5685
Pt 21.2054 8.25348 10.6194
Au 19.2329 12.1889 17.3388
Pt 13.0721 22.4916 20.4012
Au 15.442 13.5369 12.7804
Pt 7.82029 20.5932 15.1786
Au 15.9803 18.4204 19.0425
Pt 12.9142 24.7582 18.8105
Au 25.5639 13.8206 11.3806
Pt 22.1379 13.4435 21.0348
Au 4.02561 17.6219 15.6469
Pt 11.6339 20.421 17.7545
Au 17.7898 27.001 14.8243
Pt 19.5659 8.64098 20.5351
Au 5.38082 19.4528 19.5536
Pt 13.7896 20.4504 16.0392
Au 17.5695 21.0226 5.33578
Pt 14.6245 11.0479 6.49387
Au 22.9068 21.9555 21.4777
Au 11.195 24.5355 21.066
Pt 19.6928 19.9938 11.8702
Au 16.8765 25.4123 19.8944
Pt 19.3915 17.7662 8.18273
Au 22.5153 23.6847 15.2667
Pt 10.8872 24.0314 16.6311
Au 16.5907 13.3859 17.189
Pt 13.9989 18.3533 21.5911
Au 10.1894 25.5874 18.6675
Pt 15.6435 24.9534 15.0171
Au 26.0607 15.585 21.5689
Pt 9.66995 21.1492 10.5457
Au 15.265 25.8543 10.5625
Pt 24.0977 14.6035 15.2275
Pt 17.9402 23.3296 18.384
Pt 22.8548 17.7947 19.5447
Pt 15.1372 13.542 6.23962
Au 10.1857 19.7377 6.06076
Pt 19.5061 11.4632 11.5233
Au 12.4073 5.009 10.256
Pt 16.254 8.15979 12.359
Au 21.4819 3.84578 14.7458
Pt 22.0323 19.2704 21.6781
Au 22.6631 21.3009 9.43184
Pt 18.5289 5.09931 17.3317
Au 23.8819 14.812 22.9744
Pt 23.6951 15.5146 20.2284
Pt 10.9113 22.8186 19.0002
Pt 19.1781 6.38048 10.8543
Au 21.3326 7.59571 7.95469
Pt 21.5779 16.8288 9.11643
Au 25.507 15.7673 13.1163
Pt 22.0965 8.27641 17.0024
Au 25.125 20.0216 12.4801
Pt 20.7004 19.4729 9.64137
Au 20.1755 18.6365 25.6735
Pt 22.8568 15.1568 12.8449
Au 17.0866 23.0741 24.7515
Pt 23.6499 17.7771 12.8668
Au 11.738 9.17463 22.8787
Pt 16.3208 8.20088 14.9927
Au 24.5642 19.948 20.512
Pt 5.97812 18.9264 14.261
Au 18.9823 21.0109 25.3068
Pt 22.4179 20.0178 12.0404
Au 15.0901 13.2547 27.1408
Pt 17.9567 6.92338 19.2234
Pt 18.1977 10.7834 21.2622
Pt 17.5469 5.52706 14.9099
Au 22.094 4.70158 19.3318
Au 21.3367 11.8855 6.68795
Pt 20.3784 18.3188 18.5574
Au 23.4928 6.98321 18.9703
Pt 22.2642 14.4181 8.12012
Au 25.8195 11.9298 18.6562
Pt 17.9304 10.0232 13.3861
Au 17.3659 24.5281 22.4162
Pt 9.27513 16.9255 13.0531
Au 15.4361 8.91434 5.03459
Pt 18.6052 8.91619 11.0542
Au 15.0849 18.2491 26.3336
Pt 20.7303 15.609 20.0212
Au 13.9443 8.54443 24.7831
Pt 13.2571 17.8856 19.0485
Au 21.3866 16.6027 6.37111
Pt 19.6277 16.9303 23.6097
Au 15.2367 10.6397 25.9832
Pt 19.8236 13.2524 24.8573
Au 5.06042 17.1655 20.979
Pt 15.8177 16.7812 23.4739
Au 10.2893 11.0774 5.22362
Pt 11.5512 17.4339 6.78197
Au 23.5244 9.06458 9.58033
Au 15.8165 26.9158 13.0096
Pt 24.5134 16.4127 17.4945
Au 26.3169 11.0893 16.0647
Pt 18.5842 19.7678 14.166
Au 26.73 17.9857 17.0648
Pt 19.9653 23.8457 14.3047
Au 23.0751 23.7709 10.5639
Pt 22.0755 11.0298 11.1105
Au 21.7043 15.4162 24.7336
Pt 17.6449 24.7358 13.2692
Au 24.7094 19.6825 17.7068
Pt 15.4431 24.8012 17.6073
Au 23.3303 20.0116 14.7269
Au 19.2624 25.6945 18.3241
Pt 21.0186 18.511 13.9525
Au 24.0322 20.1635 23.206
Au 25.6983 17.5806 19.6363
Pt 19.015 21.7725 9.88689
Au 17.9061 2.95871 12.178
Pt 22.102 20.2792 19.2126
Au 10.633 18.8443 25.4969
