561
Atoms. Timestep: 20238
Pt 7.61747 7.41931 15.3881
Au 5.73618 7.19464 13.4262
Pt 7.46191 11.0441 11.2447
Au 5.3418 9.19031 15.2777
Pt 5.48874 11.1144 13.2084
Pt 5.37752 11.2371 17.1703
Au 3.79503 13.1366 9.24937
Pt 5.60821 15.102 9.05593
Au 3.48684 13.0753 12.9949
Pt 3.86992 15.0484 11.1
Au 3.38493 15.245 18.9221
Pt 5.35759 13.1602 15.1187
Au 5.66772 7.29309 17.2403
Pt 5.23798 15.1797 17.0442
Pt 7.208 11.3329 19.2902
Au 5.63809 13.0772 7.24033
Au 3.45348 17.066 12.919
Pt 7.032 17.5843 6.72172
Au 3.31259 15.0873 14.9643
Pt 5.46921 17.0574 11.0283
Au 3.25948 17.1896 16.8799
Pt 5.256 17.0958 15.0224
Au 6.81649 17.1654 24.9003
Pt 5.11785 17.2539 19.0083
Au 5.01644 15.2756 21.177
Pt 7.02344 15.2834 23.0616
Au 4.91122 17.6796 8.42024
Au 4.90576 21.5626 12.2929
Pt 5.06129 19.5656 10.4121
Au 3.34037 19.273 18.689
Pt 5.32834 19.1486 16.9036
Au 4.95589 19.2297 20.9286
Pt 5.30418 21.1282 18.8014
Au 3.4847 19.1953 14.8502
Au 3.57128 21.2221 16.73
Pt 5.53465 21.0883 14.8723
Pt 9.5783 7.44482 13.459
Pt 7.72525 7.29615 11.5726
Pt 7.38768 9.36918 17.2984
Pt 9.68396 5.63498 15.4718
Pt 9.4562 7.57919 17.4259
Pt 5.53717 12.9725 11.2021
Au 7.45364 8.96223 9.31683
Pt 9.59958 9.0965 7.48985
Au 5.55583 9.07566 11.3989
Pt 7.47945 9.2809 13.3801
Au 7.7609 5.37636 13.6068
Pt 9.4595 9.23595 11.3346
Au 7.76922 5.45948 17.334
Pt 7.29943 11.2377 15.2843
Au 9.39105 9.44807 15.3808
Pt 9.35143 11.2315 13.2794
Au 7.36013 7.35692 19.3776
Pt 9.60297 5.80097 19.3668
Au 11.6134 4.01851 19.4665
Pt 9.22144 9.40797 19.4346
Pt 11.2071 9.5983 21.3586
Pt 9.38283 12.9567 7.18967
Au 11.5024 8.98351 5.45708
Au 5.50567 10.9994 9.27071
Pt 7.41299 13.0143 9.20718
Au 9.35839 11.0784 9.23383
Pt 11.4514 14.8731 7.12176
Au 3.5312 11.2335 15.1029
Pt 5.42042 15.0588 13.1547
Au 7.35825 13.0839 13.2126
Pt 9.29287 13.0813 11.1995
Au 3.39608 13.1817 17.0371
Pt 7.08911 13.251 17.2743
Au 9.19685 11.4189 17.3999
Pt 9.1722 13.2335 15.3172
Au 5.02796 13.0305 19.2984
Pt 7.00629 13.294 21.2291
Au 9.13508 11.4609 21.271
Pt 9.01265 13.3856 19.3301
Au 5.38757 9.36261 19.1147
Pt 7.29644 11.4532 23.0933
Au 9.04067 11.4836 25.1801
Pt 11.1194 11.5574 23.3161
Pt 7.56393 14.9958 7.17172
Au 7.45081 10.9667 7.23341
Au 9.41389 14.9128 9.1105
Pt 7.50114 16.9572 9.16697
Au 11.461 16.8373 9.08824
Pt 9.51969 16.8986 7.16859
Au 7.32827 15.0294 11.1347
Pt 7.26565 17.0204 13.0853
Au 9.2906 15.1389 13.1887
Pt 9.39814 16.894 11.0643
Au 7.24227 15.1597 15.1874
Pt 7.08905 17.1538 17.1268
Au 9.07857 15.2478 17.3177
Pt 9.15779 17.0909 15.2219
Au 6.90707 15.2167 19.2287
Pt 6.87974 17.2763 21.1695
Au 8.93138 15.3521 21.2421
Pt 8.93007 17.2294 19.2658
Au 6.97788 13.355 24.8979
Pt 9.03475 13.4491 23.2145
Au 8.82527 15.338 25.3068
Pt 8.82512 17.2963 23.2
Au 8.82547 17.533 4.69243
Au 8.71249 19.7252 6.39669
Pt 6.93002 19.571 8.49366
Au 9.46333 18.9219 9.0627
Pt 8.92729 21.5204 8.53013
Au 7.50005 18.9779 11.0774
Pt 5.44643 19.0012 12.9857
Au 9.41441 18.7988 13.0662
Pt 9.43321 20.9492 11.0764
Au 7.27409 19.0261 15.0182
Pt 7.32575 21.0457 17.016
Au 9.15268 19.1118 17.1991
Pt 9.46629 22.6949 16.9358
Au 7.05151 19.1689 19.0984
Pt 6.93515 21.1075 20.9997
Au 8.84947 19.2417 21.2414
Pt 8.91395 21.32 19.2368
Au 6.73563 19.2394 23.1062
Au 8.66705 19.2044 25.1884
Pt 8.75208 21.0918 23.1898
Au 6.79581 21.7037 10.2777
Au 6.93045 23.488 12.4417
Pt 7.48907 20.9225 12.9783
Au 11.423 20.7935 13.0981
Pt 9.53932 22.8942 13.0509
Au 9.39657 20.8462 14.9814
Pt 5.65542 22.9287 16.8112
Au 7.67943 24.7257 16.9971
Pt 7.59184 22.8848 14.9828
Au 6.93024 23.2333 19.1813
Au 8.67038 23.2077 21.4235
Pt 9.4603 24.1997 19.0194
Pt 11.4964 7.40394 11.5014
Pt 15.6756 9.0589 9.19336
Pt 11.6139 5.63722 13.5452
Pt 13.6415 5.72292 11.6219
Pt 11.4773 5.73302 17.4562
Pt 13.5228 5.7619 15.5031
Pt 11.4982 5.91892 21.3512
Pt 13.5059 5.88737 19.5682
Pt 11.3977 7.77354 23.234
Pt 11.4751 11.0003 7.35133
Au 11.5089 7.06239 7.51702
Au 9.52218 7.07109 9.48298
Pt 11.4111 9.17588 9.40118
Au 11.7372 5.32275 9.75008
Pt 13.3952 10.922 5.45963
Au 9.69274 5.31276 11.6738
Pt 11.3763 9.44352 13.3798
Au 13.4593 7.60874 13.5171
Pt 13.3322 9.44237 11.4292
Au 11.4803 7.58678 15.4741
Pt 11.2888 9.56077 17.4589
Au 13.4111 7.66458 17.4979
Pt 13.322 9.60829 15.4826
Au 13.6079 4.10385 17.57
Pt 11.4109 7.68921 19.4215
Au 9.25762 7.46976 21.4995
Pt 13.2546 9.70453 19.4723
Au 7.14331 9.41846 21.3163
Pt 9.27487 9.59584 23.2006
Au 15.1088 9.73063 25.439
Pt 13.1974 9.70718 23.4441
Pt 11.4277 12.849 5.39559
Au 15.4634 9.06084 5.23039
Au 9.55012 10.9302 5.42224
Pt 11.3903 12.985 9.10361
Au 13.4956 11.0463 9.21796
Pt 13.4332 12.9607 7.13991
Au 11.3449 11.2923 11.2743
Pt 11.216 13.2456 13.3094
Au 13.2982 11.5022 13.3753
Pt 13.5028 12.9839 11.0895
Au 11.2827 11.4664 15.3945
Pt 11.1329 13.44 17.3915
Au 13.2229 11.6177 17.466
Pt 13.1595 13.4769 15.429
Au 11.173 11.5552 19.3974
Pt 11.025 13.5043 21.4075
Au 13.1203 11.6731 21.479
Pt 13.0981 13.5965 19.485
Au 11.1185 9.60718 25.2112
Pt 10.8661 13.467 25.1857
Au 12.9507 11.6665 25.5117
Pt 12.9657 13.6211 23.5162
Pt 11.4025 16.8736 5.25756
Au 13.2786 14.7973 4.94348
Au 9.48872 14.8514 5.18573
Pt 11.39 18.87 7.1628
Au 13.4598 14.8843 9.07026
Pt 13.416 16.7809 6.99378
Au 11.4166 14.8761 11.1275
Pt 11.4506 16.7958 13.0837
Au 13.4679 14.831 13.0963
Pt 13.4539 16.7771 11.1029
Au 11.1589 15.2715 15.3185
Pt 11.0593 17.2382 17.3687
Au 13.0914 15.4872 17.4271
Pt 13.4814 16.7409 15.047
Au 11.0344 15.3922 19.3871
Pt 10.8793 17.3575 21.3563
Au 12.9689 15.5447 21.5009
Pt 12.936 17.4663 19.462
Au 10.8983 15.4627 23.4062
Pt 10.6774 17.3641 25.239
Au 12.7529 15.4856 25.6343
Pt 12.8026 17.4357 23.5474
Pt 10.8727 21.4311 6.63657
Au 12.8032 21.4382 4.66723
Au 10.7907 19.5149 4.57392
Pt 11.487 20.8141 9.17373
Au 13.4424 18.7486 9.07315
Pt 13.4134 20.8253 7.25563
Au 11.4269 18.7948 11.112
Pt 11.4636 22.7491 15.077
Au 13.4497 18.7362 13.1177
Pt 15.4371 22.7434 11.1595
Au 11.3974 18.6947 15.0732
Pt 11.3994 20.6901 16.94
Au 13.4131 18.6359 17.0107
Pt 13.4216 20.7362 15.0728
Au 10.9173 19.3538 19.3392
Pt 10.7294 21.3364 21.4173
Au 12.8087 19.4001 21.446
Pt 13.4062 20.5166 18.9337
Au 10.7647 19.252 23.3505
Pt 10.6382 21.1196 25.1376
Au 12.5889 19.322 25.653
Pt 12.6495 21.265 23.4729
Au 12.8073 23.4122 6.62989
Au 8.89077 23.6108 10.4274
Pt 11.5027 22.7363 11.1556
Au 11.0803 25.2614 10.4754
Pt 10.9305 23.3321 8.59243
Au 13.456 20.7776 11.1233
Pt 11.5674 24.6142 13.1045
Au 13.4741 22.7392 13.1512
Pt 13.5383 24.615 11.2203
Au 9.63301 24.829 15.0447
Pt 11.4509 24.4971 17.1127
Au 13.419 22.6416 17.0563
Pt 13.4254 24.5782 15.1371
Au 11.3937 22.4185 18.9623
Pt 11.2967 24.0465 21.0231
Au 13.3192 22.2895 20.9755
Pt 13.3304 24.3446 19.1342
Au 10.5625 23.2369 23.5079
Au 12.5238 23.0541 25.4887
Pt 13.1883 23.9525 22.9956
Pt 13.4794 9.07055 7.40004
Pt 15.5718 5.94649 9.7185
Pt 15.5911 7.2915 7.38126
Pt 15.5669 5.88715 13.5685
Pt 17.53 6.15506 11.6031
Pt 15.5468 5.91621 17.58
Pt 17.5545 6.05335 15.5797
Pt 15.4115 6.04589 21.4267
Pt 17.4317 6.11364 19.5663
Pt 15.276 7.89656 23.3712
Pt 19.196 8.12737 23.3656
Pt 17.3997 11.0908 5.29281
Au 13.5521 7.10085 5.65138
Au 13.7305 5.41226 7.83571
Pt 13.4653 7.47815 9.55442
Au 17.9129 6.94548 8.89667
Pt 17.5772 9.11391 7.10557
Au 15.4467 7.78493 11.5724
Pt 15.2977 9.68668 13.542
Au 17.4051 7.92489 13.5623
Pt 17.8546 8.86405 10.9329
Au 15.4241 7.73401 15.5512
Pt 15.2734 9.772 17.5045
Au 17.3837 7.9434 17.5558
Pt 17.2467 9.89954 15.5475
Au 15.3597 7.88509 19.4907
Pt 13.3426 7.86731 21.4012
Au 17.3636 6.04848 23.2822
Pt 17.2725 8.0391 21.4515
Au 13.4239 5.94138 23.2725
Pt 15.1975 9.83875 21.5177
Au 17.2594 7.97502 25.2498
Pt 17.1728 9.89774 23.4085
Pt 15.3274 12.824 5.22793
Au 17.3249 14.7927 4.81975
Au 15.4822 10.9648 7.18098
Pt 15.4749 12.9911 9.02444
Au 17.5539 11.0707 9.07759
Pt 17.4043 13.0325 7.03687
Au 15.6021 10.9901 11.1189
Pt 15.6049 12.9314 13.041
Au 17.6831 10.912 12.9738
Pt 17.5381 13.007 11.0285
Au 15.2221 11.7178 15.4684
Pt 15.0973 13.7053 17.5127
Au 17.1732 11.9309 17.4923
Pt 17.6624 12.8947 14.972
Au 15.1583 11.7955 19.5187
Pt 15.0236 13.7287 21.6025
Au 17.1038 11.9269 21.5816
Pt 17.0376 13.879 19.5583
Au 15.0269 11.7554 23.5628
Pt 14.8933 13.6521 25.4612
Au 16.9345 13.5242 27.1251
Pt 16.9512 13.8462 23.6888
Pt 13.3125 18.8536 5.311
Au 15.2966 16.859 4.81577
Au 15.3854 14.9183 6.8834
Pt 15.3982 16.8061 8.97905
Au 17.3975 14.9747 8.99875
Pt 17.3076 16.8493 6.82417
Au 15.4883 14.8996 11.0727
Pt 15.477 16.7894 13.0987
Au 17.5408 14.9045 13.0672
Pt 17.4382 16.8316 11.0842
Au 15.5339 14.7963 15.0461
Pt 15.5309 16.711 17.0119
Au 17.5735 14.8161 16.9933
Pt 17.5168 16.8159 15.0542
Au 15.0098 15.671 19.525
Pt 14.876 17.5785 21.5824
Au 16.9246 15.7872 21.6097
Pt 17.5641 16.7394 19.0256
Au 14.8774 15.6337 23.6507
Pt 14.6825 17.5027 25.5064
Au 16.8048 15.7987 25.7972
Pt 16.8061 17.6646 23.6665
Pt 15.343 20.998 5.43597
Au 15.2015 19.2499 3.55145
Au 15.3723 18.7744 7.0052
Pt 17.3474 22.8158 9.18043
Au 17.3345 18.7376 9.07353
Pt 17.3246 20.8297 7.22803
Au 15.4298 18.7303 11.1188
Pt 15.4239 20.7636 13.1118
Au 17.4438 18.8031 13.093
Pt 17.3716 20.7867 11.0936
Au 15.4579 18.7373 15.0788
Pt 15.4159 20.6551 17.0481
Au 17.4963 18.7146 17.0616
Pt 17.413 20.7236 15.0927
Au 15.4347 18.5542 19.0061
Pt 15.3528 20.377 20.9983
Au 17.4756 18.6194 21.0486
Pt 17.3761 20.5773 19.0497
Au 14.715 19.4087 23.6254
Pt 14.5405 21.2748 25.4649
Au 16.6154 19.4505 25.7994
Pt 17.3383 20.398 23.1356
Pt 15.3994 22.8323 7.33121
Au 17.3494 22.818 5.39238
Au 15.3989 20.8099 9.13508
Pt 13.4525 22.8382 9.22811
Au 19.2967 24.7656 9.20474
Pt 19.2346 22.7859 7.29983
Au 15.419 24.7855 9.24343
Pt 15.4181 24.6095 13.1656
Au 17.3539 22.7143 13.1335
Pt 17.3553 24.601 11.189
Au 15.4281 22.7153 15.1439
Pt 15.3851 24.4852 17.1906
Au 17.3973 22.6554 17.1297
Pt 17.3967 24.5571 15.1721
Au 15.3738 22.5297 19.0835
Pt 15.2777 24.2068 21.1753
Au 17.3089 22.3284 21.1359
Pt 17.3584 24.3328 19.245
Au 15.2359 22.1282 23.0062
Pt 15.0135 23.8325 24.8405
Au 17.123 22.1925 25.2178
Pt 17.0946 24.0008 23.1208
Pt 21.6791 7.60677 8.86947
Pt 19.5839 6.30046 13.5861
Pt 21.9407 7.36005 12.6504
Pt 19.4043 6.20228 17.6167
Pt 21.3178 6.40036 15.7428
Pt 19.3019 6.33736 21.3978
Pt 19.3526 8.11412 19.5409
Pt 19.4459 11.1867 7.07946
Au 19.7914 7.40994 6.91613
Pt 19.618 9.21374 8.96919
Au 23.4902 7.89575 7.02008
Pt 21.4815 9.51264 6.93273
Au 19.995 6.89489 10.8284
Pt 19.8093 8.99061 12.8419
Au 22.0834 5.0661 13.7218
Pt 21.694 9.32432 10.871
Au 19.3032 8.12188 15.5564
Pt 19.2276 10.0869 17.5448
Au 21.3708 6.19026 19.4381
Pt 21.2185 8.30613 17.5655
Au 17.2671 9.96638 19.5274
Pt 19.2542 9.99623 21.5078
Au 21.3807 7.98522 21.6608
Pt 21.1892 10.146 19.5709
Au 19.1889 9.98503 25.4432
Pt 17.0525 11.6972 25.3119
Pt 21.084 10.1445 23.4492
Pt 19.3751 13.0213 5.14189
Au 21.4237 11.3381 4.94539
Au 19.438 9.38096 5.05677
Pt 19.4685 13.1189 8.94869
Au 21.5689 11.2752 8.9402
Pt 21.4099 13.1352 6.98737
Au 19.6141 11.1407 10.9848
Pt 19.5968 13.061 13.0047
Au 21.6686 11.2527 12.9454
Pt 21.5798 13.1728 10.9396
Au 19.703 11.0111 14.924
Pt 19.7118 12.9486 16.9366
Au 21.7457 11.0595 16.8844
Pt 21.712 13.1288 14.9873
Au 19.1482 12.0652 19.5224
Pt 18.9515 13.9598 21.6003
Au 21.0759 12.1231 21.5205
Pt 21.7679 12.8934 18.9011
Au 19.0883 11.9504 23.548
Pt 18.9692 13.8096 25.4682
Au 21.156 12.1713 25.4283
Pt 20.9138 14.0442 23.4526
Pt 17.2907 19.014 5.1762
Au 19.2771 16.9889 4.80808
Au 19.2939 15.0399 6.90472
Pt 19.3696 16.8832 8.99412
Au 21.4413 15.0511 8.94975
Pt 21.2734 16.9871 7.02246
Au 19.4866 14.9801 11.0202
Pt 19.4948 16.8582 13.0602
Au 21.6035 15.0285 13.0167
Pt 21.4872 16.9089 10.9881
Au 19.618 14.9429 15.0541
Pt 19.5539 16.8546 17.0531
Au 21.7278 14.9754 17.083
Pt 21.5785 16.8895 15.0829
Au 19.5632 14.8396 18.9283
Pt 19.51 16.7274 21.0356
Au 21.4726 14.8809 20.8201
Pt 21.5722 16.9009 19.0214
Au 18.8682 15.8266 23.6714
Pt 18.7435 17.6812 25.5461
Au 20.8306 15.8057 25.6812
Pt 21.5902 16.6659 23.1064
Pt 19.2066 20.8505 5.3207
Au 22.9997 20.8387 5.23809
Au 19.2254 18.7985 7.05105
Pt 19.2769 20.7739 9.11092
Au 21.3132 18.8476 9.07102
Pt 21.1629 20.8155 7.1979
Au 19.3792 18.8053 11.0885
Pt 19.4336 20.8188 13.0648
Au 21.4464 18.7829 13.0442
Pt 21.3427 20.8103 11.06
Au 19.482 18.7947 15.0498
Pt 19.4485 20.6997 17.0588
Au 21.4952 18.8613 17.0877
Pt 21.4482 20.7756 15.0146
Au 19.5669 18.8729 19.1156
Pt 19.5017 20.7367 21.2448
Au 21.4467 18.7797 21.1324
Pt 21.794 21.1399 19.2527
Au 19.433 18.5176 23.0646
Pt 19.1484 20.2591 25.0155
Au 21.3536 18.4833 25.1186
Pt 21.2498 20.476 23.2641
Au 21.0483 22.7533 5.34771
Pt 21.1925 22.7249 9.1158
Au 25.0053 22.7617 9.15919
Au 19.3164 22.7194 11.1122
Pt 19.3098 24.54 13.1065
Au 21.484 22.8123 13.1353
Pt 21.1967 24.5226 11.1359
Au 19.3341 22.6855 15.0896
Pt 19.3983 24.474 17.2462
Au 21.302 22.646 17.0171
Pt 21.204 24.5258 15.0548
Au 19.3473 22.4414 19.1375
Pt 19.2307 24.058 21.1971
Au 21.4728 22.6847 21.7812
Pt 21.4351 23.9344 19.4205
Au 19.2852 22.4974 23.4644
Pt 23.6739 7.19254 14.6768
Pt 23.0808 8.31536 19.4885
Pt 23.3493 6.73353 17.4118
Pt 23.5972 9.53328 8.97749
Au 23.7355 7.34001 10.6254
Pt 23.6618 9.38948 12.8228
Au 25.4874 7.4413 12.7429
Pt 25.3982 9.46801 10.919
Au 21.7616 9.06489 14.8133
Pt 23.7347 9.19793 16.6187
Au 25.7422 7.27904 16.3334
Pt 25.5696 9.32118 14.6535
Au 25.1932 8.90632 21.067
Pt 22.9957 10.163 21.5588
Pt 25.487 8.84757 18.4457
Pt 21.2719 15.0896 5.18125
Au 23.6042 11.257 6.84605
Pt 23.5149 13.2123 8.83083
Au 25.5405 11.4338 8.95128
Pt 23.3282 15.1833 7.02843
Au 23.647 11.4124 10.9579
Pt 23.7462 13.2691 12.9608
Au 25.8497 11.3836 12.8356
Pt 25.4838 13.3315 10.8766
Au 23.7905 11.287 14.8511
Pt 23.7506 13.1153 16.934
Au 25.9347 11.0681 16.7736
Pt 25.6098 13.2275 14.9627
Au 23.8574 10.8767 18.735
Pt 23.7087 12.5112 20.6924
Au 26.364 11.04 19.9979
Pt 25.6621 13.0881 18.6108
Au 25.3785 11.3447 22.5237
Pt 22.985 12.2056 23.4171
Pt 25.8783 13.6974 21.1276
Pt 21.1502 18.9512 5.25349
Au 23.153 17.096 5.12635
Au 23.2904 13.3697 5.09846
Pt 23.4024 17.0295 8.91373
Au 25.4174 15.1773 8.84018
Pt 23.194 18.9604 7.12093
Au 23.5574 15.0969 10.923
Pt 23.6081 16.9492 12.9849
Au 25.7809 15.2005 12.949
Pt 25.3328 17.0409 10.8581
Au 23.7235 15.1012 15.0174
Pt 23.6554 16.9499 17.0874
Au 25.8061 15.214 16.9785
Pt 25.486 17.0936 15.014
Au 23.8344 14.9434 19.1929
Pt 23.4633 17.0288 21.1086
Au 25.9561 16.2385 21.7519
Pt 25.4049 17.0294 19.1368
Au 23.6178 14.5967 22.2389
Pt 23.0001 14.4569 24.8325
Au 25.4705 13.8247 23.8653
Pt 24.2197 16.5041 23.7819
Au 23.1214 22.8059 7.14057
Pt 23.1956 20.851 9.04979
Au 25.2666 19.0627 8.96916
Au 23.4072 18.8728 11.0127
Pt 23.3202 20.7544 13.0307
Au 25.6043 18.8951 12.8871
Pt 25.0933 20.884 11.0514
Au 23.5082 18.8037 15.0277
Pt 23.4068 20.7534 16.9519
Au 25.5818 19.0703 17.1214
Pt 25.2273 20.7511 14.8252
Au 23.4534 18.8787 19.0699
Pt 23.3121 20.6384 21.3102
Au 25.3978 18.9525 21.0784
Pt 24.8522 21.0523 19.1336
Au 23.4614 18.898 23.275
Au 23.0143 24.6229 9.1735
Pt 23.1782 22.7554 11.1037
Au 25.0146 22.8165 13.0613
Au 22.092 25.3251 17.3214
Pt 23.6395 23.2255 17.9389
Au 25.7604 22.1911 16.8575
Pt 23.3353 22.7883 15.1857
Au 23.8172 23.1184 20.521
