561
Atoms. Timestep: 20483
Pt 12.3291 14.7998 21.3952
Au 5.06465 17.1137 10.5714
Pt 9.72123 10.8553 22.283
Au 10.018 4.74959 19.046
Pt 9.11518 14.17 8.25994
Pt 10.1617 13.6338 14.6759
Au 21.7082 23.8052 10.1555
Pt 10.1187 7.35862 20.309
Au 9.50054 22.8144 13.7695
Pt 16.08 11.3048 20.4824
Au 13.4162 15.5837 26.179
Pt 21.1585 19.8977 20.1114
Au 19.7689 11.024 6.29978
Pt 23.8748 14.6455 16.4549
Pt 12.1296 22.5477 14.7595
Au 15.6619 18.632 3.87426
Au 26.0562 13.5028 15.5401
Pt 6.36386 17.164 16.2724
Au 12.8446 3.24013 15.1697
Pt 10.197 17.5909 18.7106
Au 9.21428 11.8649 24.7307
Pt 11.5438 17.5775 21.3077
Au 8.77807 23.2447 20.3124
Pt 19.4251 9.46416 17.2656
Au 11.2793 22.9582 21.4842
Pt 13.9161 9.90893 21.1113
Au 13.7593 20.3394 4.8034
Au 23.583 9.60529 12.4261
Pt 14.5571 13.824 4.72261
Au 18.8877 9.07052 24.4655
Pt 14.864 26.212 13.6754
Au 10.9521 6.68398 9.95648
Pt 8.51188 10.5878 17.7296
Au 18.2089 12.2084 4.36104
Au 9.17279 21.3957 22.4777
Pt 17.7493 7.41001 8.61129
Pt 9.9949 18.539 11.5496
Pt 9.33007 11.1674 9.71807
Pt 22.4941 11.0473 20.3969
Pt 11.2501 7.43314 12.667
Pt 10.9643 9.66632 17.1753
Pt 19.2303 14.0301 6.44501
Au 14.543 2.66172 18.0233
Pt 15.0787 6.12748 14.6685
Au 10.4691 10.5075 5.68489
Pt 12.1686 16.9251 16.6392
Au 22.3392 15.9901 23.9056
Pt 16.5945 18.5335 20.7451
Au 7.12302 21.0696 9.97312
Pt 22.7409 15.0126 21.5119
Au 6.7158 9.95248 9.74259
Pt 18.2335 7.99499 21.7063
Au 4.5813 18.6682 17.6848
Pt 8.828 20.4717 7.92888
Au 23.0348 21.8701 19.7454
Pt 19.5398 7.5453 19.3725
Pt 19.5387 22.29 11.004
Pt 9.99638 21.0413 10.4141
Au 15.7258 3.55035 15.4184
Au 9.70056 7.27356 22.9409
Pt 20.2531 11.3362 18.8731
Au 12.9488 10.8667 4.39297
Pt 17.3687 21.6351 17.9757
Au 10.98 14.1753 25.7478
Pt 12.9364 10.3817 7.30497
Au 22.4748 6.96033 13.628
Pt 8.80293 18.374 9.38334
Au 4.69772 20.5261 15.2863
Pt 13.3009 13.3045 24.2849
Au 13.6216 9.34127 24.2941
Pt 17.55 11.7412 18.243
Au 4.36269 10.7183 15.7349
Pt 18.9466 15.0324 20.8003
Au 8.50641 5.64281 16.7403
Pt 21.9123 12.3196 22.4881
Au 11.3422 5.39009 21.5421
Pt 10.3179 7.27701 17.8158
Au 24.5872 12.794 20.9102
Pt 14.3031 9.32347 11.1758
Pt 16.5601 18.6914 9.25211
Au 12.6964 26.6677 11.5192
Au 4.43249 19.0541 12.6215
Pt 14.9761 16.8484 24.1731
Au 21.8243 25.9001 11.9352
Pt 15.0498 11.5338 6.36154
Au 14.9334 13.0813 15.2333
Pt 12.5118 11.1457 19.0364
Au 11.9673 15.1275 3.61616
Pt 6.9484 18.8788 11.4334
Au 10.8938 12.683 4.0783
Pt 16.551 10.645 16.051
Au 20.2187 15.6776 25.4768
Pt 15.329 23.3771 9.20819
Au 2.4151 15.1892 14.8686
Pt 18.0458 20.0402 15.4339
Au 11.857 11.463 25.583
Pt 16.8559 9.1714 10.4388
Au 14.6432 28.7661 13.8957
Pt 13.0448 8.25046 8.97075
Au 7.1459 21.9957 15.0662
Pt 7.87741 10.7059 12.0539
Au 15.0043 27.9317 11.3356
Au 21.0992 12.9822 4.91686
Pt 14.3861 10.7395 13.8251
Au 20.2707 6.59642 8.88488
Pt 19.011 20.0926 12.8695
Au 3.80718 13.3346 13.2344
Pt 8.35276 13.3327 10.9002
Au 3.60956 16.0393 17.1704
Pt 10.0925 15.3091 20.0913
Au 21.9621 6.76155 17.848
Pt 8.39721 8.46545 16.1642
Au 16.5963 16.6773 15.8109
Pt 13.3837 24.9139 15.6742
Au 11.3563 24.8575 19.5976
Pt 5.81295 12.8827 14.9759
Au 18.7321 20.1429 24.6168
Pt 15.605 8.58225 22.6891
Au 15.8639 16.7141 26.6481
Au 16.4607 13.8098 2.74241
Pt 15.979 25.2479 15.7763
Au 22.3917 11.4567 6.93509
Au 4.02041 13.9407 19.0624
Pt 12.1598 14.2411 12.8759
Au 6.20667 13.9611 22.6674
Pt 21.8835 20.7283 17.2318
Au 24.2753 24.6828 16.5616
Pt 12.6391 18.1316 6.82544
Au 19.7181 25.8056 9.98068
Pt 12.7463 18.4184 23.6019
Au 17.1354 28.8512 12.6731
Au 6.52284 16.6773 23.1509
Pt 10.9073 12.2857 16.9788
Pt 17.7391 11.7838 9.76446
Pt 17.0696 8.45159 17.6204
Pt 10.2612 11.9288 12.3463
Pt 12.7231 7.45504 16.5449
Pt 14.6956 7.25709 18.3087
Pt 9.08113 8.88138 13.5651
Pt 12.1349 17.2089 9.602
Pt 12.3324 11.2653 22.8315
Pt 10.7818 16.298 14.5626
Pt 14.7352 22.5849 11.8128
Au 4.75882 15.622 21.2053
Au 5.83103 20.5279 19.1848
Pt 15.9813 11.5514 11.7258
Au 17.5264 3.71276 20.5046
Pt 21.0104 13.461 8.16623
Au 5.63057 12.2487 10.9298
Pt 10.1251 9.9953 19.7546
Au 16.81 7.17612 6.09495
Pt 20.4704 15.2757 10.1392
Au 17.3981 12.5107 27.2785
Pt 11.0108 12.5206 20.6974
Au 13.0802 17.7683 4.1246
Pt 21.1823 8.21541 15.6065
Au 25.8599 21.9156 12.3534
Pt 7.58283 15.8961 20.909
Au 8.29275 18.3793 6.44196
Pt 11.6269 8.89044 21.7899
Au 16.5013 27.0692 17.8822
Pt 7.25749 12.3413 8.59409
Au 20.574 7.49094 22.9856
Pt 21.6115 17.668 21.6129
Pt 11.8361 22.2811 12.0438
Au 15.154 2.6567 20.86
Au 13.6764 24.5296 21.0165
Pt 15.5146 8.99857 7.641
Au 14.4808 26.1277 9.06687
Pt 11.9287 9.31521 14.8382
Au 13.3493 5.24914 9.01768
Pt 13.8351 12.6407 20.9398
Au 18.5633 4.44489 15.7151
Pt 11.2242 5.10621 16.5622
Au 14.1594 16.0047 14.3362
Pt 7.89702 15.3155 14.9702
Au 17.8378 14.0163 11.8451
Pt 9.98991 15.8333 10.0964
Au 20.5889 26.7427 14.4261
Pt 17.0538 21.4697 10.6907
Au 7.8298 6.44782 14.2111
Pt 14.6657 15.0928 19.9897
Au 17.2799 9.90382 5.49642
Pt 8.90585 18.0611 21.0169
Au 13.5631 18.3141 26.1963
Pt 21.2016 13.3862 20.2192
Pt 17.2594 18.4576 11.7574
Au 5.93803 21.3571 12.6279
Au 3.87547 11.1975 18.4382
Pt 9.42107 15.0214 12.5786
Au 14.7826 8.93659 5.05177
Pt 13.366 12.1711 11.5312
Au 13.5146 14.9734 10.5679
Pt 6.47056 14.6379 9.7376
Au 14.8838 11.1006 26.0049
Pt 15.8616 6.96355 12.1727
Au 10.9869 20.2374 13.5218
Pt 16.8237 13.7409 20.0265
Au 15.1233 14.0253 12.6377
Pt 23.5163 17.3414 16.7201
Au 16.912 18.7933 17.7725
Pt 19.3112 19.2336 22.1294
Au 10.0184 4.67613 14.1192
Pt 10.8091 13.4333 23.2154
Au 5.08 12.0707 20.8518
Pt 18.2819 9.80468 19.7747
Au 5.93038 18.2983 20.8895
Pt 19.584 11.6573 23.4498
Pt 13.0407 24.458 13.0988
Au 10.7542 19.9097 5.92931
Au 11.7878 20.9404 23.1777
Pt 14.7893 23.0162 17.2095
Au 25.8307 18.9477 16.8655
Pt 19.4063 24.2579 17.4051
Au 3.95802 14.5374 10.687
Pt 8.06456 15.6244 18.1508
Au 10.6379 24.8818 15.1646
Pt 18.446 20.4251 20.0299
Au 17.128 3.5494 17.8982
Pt 15.7135 13.5013 9.76616
Au 14.6861 22.7172 6.25204
Pt 21.5217 20.5574 11.3489
Au 3.9494 17.864 15.0411
Pt 10.7426 23.5656 9.93538
Au 14.5728 15.5595 17.2943
Pt 13.0673 21.6388 9.72866
Au 21.1379 21.4825 8.71045
Pt 21.4861 15.6455 17.0215
Au 21.6473 10.0415 24.0786
Pt 15.4334 16.4773 5.44871
Au 24.8674 9.9489 20.2652
Au 14.0406 22.2153 22.4148
Pt 5.96461 14.4313 17.1218
Au 12.2138 8.39278 5.70742
Pt 11.1939 19.4383 8.72012
Au 9.02545 6.22597 11.8133
Pt 19.4427 19.6254 17.6917
Au 7.74736 22.1886 17.9181
Pt 19.5508 24.7162 12.516
Au 3.51881 13.2389 16.4206
Pt 13.4844 19.7212 21.024
Au 20.6465 18.3857 5.5
Pt 17.262 22.864 15.7111
Au 16.2767 21.1051 21.3258
Pt 19.1271 17.7204 19.9145
Au 17.957 15.1841 27.0587
Pt 5.02598 15.3071 14.8508
Au 3.55828 16.2803 12.7173
Au 10.5647 24.9267 12.2482
Pt 8.2404 20.4944 20.1677
Pt 9.9312 9.06003 11.0322
Pt 16.4432 9.38993 13.3202
Pt 6.24223 11.8802 17.7888
Pt 15.0444 19.9885 11.3416
Pt 15.0158 14.1834 7.30471
Pt 18.6829 13.5107 25.0419
Pt 16.9951 16.1919 7.62233
Pt 13.8092 8.09861 13.4988
Pt 17.3769 15.6341 24.272
Pt 17.5118 10.3968 22.4163
Pt 17.3688 6.15394 19.2144
Pt 20.7107 8.71616 12.8371
Au 22.9212 14.3399 6.43978
Au 23.6406 24.3898 19.0816
Pt 13.3808 6.63125 11.3273
Au 14.2612 27.4384 16.2594
Pt 12.1353 23.5372 17.4419
Au 10.5515 8.97929 8.09242
Pt 23.9024 11.7632 18.3497
Au 21.5256 8.86268 7.94174
Pt 15.6171 21.0043 8.3164
Au 19.3797 12.097 16.158
Pt 13.7106 7.12168 21.0899
Au 23.0573 25.3669 14.2788
Pt 20.4237 11.043 8.93446
Au 11.8638 2.91746 17.7004
Pt 13.9057 5.00756 16.9015
Au 25.3627 11.2611 13.8465
Pt 21.6558 22.937 12.7254
Au 25.66 20.7582 19.457
Pt 6.19695 16.9399 13.2698
Au 8.23692 10.1683 7.39268
Pt 12.4305 15.7806 23.6789
Pt 21.6614 8.96249 19.2579
Au 23.168 10.5093 9.47048
Au 12.5968 14.2507 15.7835
Pt 15.097 10.9308 9.18662
Au 5.8649 9.71382 19.7733
Pt 19.8839 12.8037 10.724
Au 4.91415 16.0333 8.1218
Pt 13.0037 15.7017 6.01444
Au 8.61531 12.6263 6.00609
Pt 7.94909 12.778 13.5607
Au 25.3414 16.6836 12.2888
Pt 18.3147 7.77102 12.2505
Au 17.0412 14.0046 16.6901
Pt 18.9038 12.2671 20.9328
Au 14.9275 12.7647 18.1623
Pt 12.7734 18.2433 14.0102
Au 25.91 13.4734 18.3041
Pt 21.429 13.6602 15.0759
Au 17.7571 6.53135 23.8721
Pt 16.4688 5.88825 16.8079
Au 7.04685 11.4017 22.8118
Pt 8.65616 13.5064 21.7133
Pt 16.3922 16.0158 10.3488
Au 16.6266 20.7108 5.58502
Au 10.8659 9.2795 24.3984
Pt 21.01 18.3611 12.7962
Au 22.6589 17.4437 7.1777
Pt 9.74319 10.9358 14.9766
Au 21.0181 24.7158 19.6191
Pt 15.2796 18.7188 6.74555
Au 17.6449 9.90069 26.9734
Pt 17.2637 12.4361 7.24015
Au 17.0389 16.1804 18.8142
Pt 15.082 19.4025 23.0201
Au 16.4763 23.7509 22.291
Pt 9.82592 16.0184 22.7082
Au 19.131 5.50417 21.5437
Pt 21.6654 10.6722 14.3773
Au 8.5415 22.9929 8.62192
Pt 8.22011 13.0482 16.3995
Au 19.1528 14.6117 3.59186
Pt 17.2082 11.3538 24.7999
Au 12.4244 6.94228 23.538
Pt 10.0988 22.0384 16.311
Pt 21.409 17.7605 10.0851
Au 16.2164 5.23435 8.0421
Au 25.497 15.376 20.59
Pt 16.9236 24.4292 18.0256
Au 24.2883 17.1324 22.2793
Pt 20.4134 18.9909 8.05447
Au 23.1271 19.5875 8.95026
Pt 20.9859 14.4533 12.5831
Au 18.7121 14.7665 14.5876
Pt 16.5647 21.1306 13.3644
Au 15.7324 13.848 25.4712
Pt 16.9517 14.3889 5.35545
Au 15.0323 6.32974 24.0737
Pt 9.46187 19.9137 17.8634
Au 10.3182 15.0617 17.1028
Pt 15.4825 23.0405 19.7514
Au 12.0441 22.3982 5.5473
Pt 10.295 16.8925 7.57957
Au 15.4631 4.64652 10.6544
Pt 13.9554 19.0198 9.17551
Au 25.5446 19.7012 10.8209
Pt 19.2794 16.5211 12.0635
Pt 10.7555 12.1329 7.78732
Au 7.47787 19.2983 22.9194
Au 25.6129 13.8859 12.9127
Pt 13.2992 12.7139 8.80043
Au 16.1257 19.264 25.6124
Pt 10.5968 14.5339 6.02267
Au 21.1641 15.7693 5.05654
Pt 11.3197 19.2774 16.0283
Au 12.8451 23.9266 7.83869
Pt 18.1621 23.2116 20.0369
Au 16.2234 25.6496 20.3959
Pt 10.1308 18.7716 23.2264
Au 24.9293 14.6689 10.3983
Pt 23.2762 17.6589 14.0897
Au 22.2056 8.06763 10.5667
Pt 18.4494 25.1654 14.9864
Au 11.6451 4.70729 11.8984
Pt 7.52519 18.2214 18.7149
Au 13.9174 4.6477 22.2534
Pt 19.6201 8.82697 10.1615
Au 9.48908 24.3511 17.6915
Pt 20.2273 22.0913 18.9169
Pt 12.462 8.548 19.1604
Pt 20.2512 14.2604 22.9176
Pt 5.64686 16.3896 18.895
Pt 10.9622 21.9839 7.92143
Pt 7.19368 10.7037 15.2605
Pt 21.9534 10.4093 16.981
Pt 12.6714 12.9101 6.1667
Pt 12.4297 5.87644 19.0056
Au 11.7238 26.3191 17.2237
Pt 21.9933 23.3134 17.3432
Au 14.1975 6.74854 6.84192
Pt 14.9226 9.99032 18.37
Au 24.1037 8.99623 17.7641
Pt 14.9223 8.64202 15.8439
Au 11.5334 6.4735 7.38546
Pt 7.65555 16.3678 8.25504
Au 18.3009 18.9139 4.2752
Pt 9.18561 13.1178 18.8696
Au 19.7284 4.8832 18.5623
Pt 19.0882 22.4466 13.7624
Au 8.36309 7.83978 9.34149
Pt 22.4841 13.2789 10.5634
Au 19.386 23.5536 8.48561
Pt 12.008 10.585 9.84966
Au 21.0149 22.685 21.4386
Pt 23.1359 22.578 15.0574
Pt 20.8595 24.0569 15.0164
Pt 11.0741 13.3702 10.336
Au 14.5376 15.8022 2.89589
Au 14.2738 4.19526 12.9709
Pt 12.0189 9.95045 12.3687
Au 17.9855 5.65679 10.5649
Pt 18.2711 14.3504 8.97596
Au 24.5038 17.3232 9.58313
Pt 20.3036 9.86347 21.5549
Au 23.9612 23.9842 12.0116
Pt 14.976 4.90974 19.4953
Au 19.26 14.1348 18.2238
Pt 13.0427 22.08 19.5791
Au 19.0937 16.8495 16.9864
Pt 23.5797 12.1406 15.6281
Au 14.2823 18.4668 16.4858
Pt 17.3583 26.2776 12.8267
Au 25.8519 18.1377 19.8841
Pt 12.4196 19.5217 11.3397
Au 12.2869 26.9943 14.2548
Pt 6.23968 14.4652 12.4897
Au 8.24947 9.34925 24.0388
Pt 16.0635 8.46249 20.1605
Pt 18.0487 9.92995 8.08901
Au 8.37837 23.1459 11.3377
Au 4.64149 13.1456 8.46756
Pt 18.0126 18.6088 7.01169
Au 23.7387 21.806 10.4199
Pt 15.3318 7.17153 9.57093
Au 19.5299 27.558 12.0648
Pt 14.9897 20.4929 18.7596
Au 13.4308 11.0276 16.4472
Pt 23.0011 12.5241 13.0254
Au 18.9095 9.72383 14.6381
Pt 16.7637 16.1932 13.0832
Au 21.6083 13.1359 25.0562
Pt 12.3033 19.2883 18.6067
Au 25.6154 16.4406 15.091
Pt 19.1317 6.85141 16.8156
Au 23.7445 19.5414 21.1905
Pt 12.9753 21.0934 16.8095
Au 22.8094 8.67717 21.8905
Pt 21.4142 18.0697 18.2779
Au 17.2708 4.98229 13.3212
Pt 18.5323 16.5231 5.51529
Pt 23.3763 18.6758 11.6728
Au 7.07041 8.14456 11.8635
Au 25.745 10.9595 16.6245
Pt 23.4479 14.456 18.9966
Au 10.5486 17.2212 4.95237
Pt 17.3002 13.3412 22.724
Au 12.3916 13.8656 18.6558
Pt 22.7786 16.0486 11.5563
Au 14.4252 17.3633 11.7049
Pt 13.1012 24.2297 10.4795
Au 13.8296 20.7652 24.993
Pt 7.84104 11.3862 20.2286
Au 15.6773 18.6154 14.0192
Pt 8.48033 20.625 12.5615
Au 24.0847 10.8941 22.8329
Pt 19.4024 16.6664 22.7985
Au 21.7397 25.9302 16.9615
Pt 16.7285 16.1072 21.6879
Au 19.3492 8.13797 6.56407
Pt 13.735 20.6868 13.68
Au 17.0423 25.3099 8.33798
Pt 15.0985 11.595 23.1471
Au 24.0842 12.929 8.45783
Pt 17.3085 7.51952 14.9181
Au 25.6161 19.0792 13.6009
Au 17.3306 27.1344 10.2864
Pt 19.8729 12.2597 13.4098
Au 11.0184 16.9986 25.5288
Pt 11.7314 16.6873 12.1312
Au 19.4424 20.8343 6.0991
Pt 15.5219 20.7499 15.9361
Au 17.2524 12.2646 14.0406
Pt 9.02219 17.542 16.3025
Au 8.50439 17.3258 24.7374
Pt 6.65554 19.2239 14.2413
Au 6.06085 8.46581 14.4469
Pt 6.67127 13.8156 19.7152
Au 6.29556 18.7228 8.59468
Pt 18.6177 10.5331 11.9754
Pt 18.3007 20.9301 8.45174
Pt 12.195 11.9809 14.2251
Pt 7.72996 16.4394 11.1385
Au 11.2523 19.6817 25.5138
Pt 23.5765 20.9245 13.0512
Au 5.37288 10.7917 13.1626
Pt 16.2122 6.14941 21.5437
Au 8.31406 15.7297 5.66006
Pt 11.9663 14.865 8.26673
Au 24.8225 11.91 11.1231
Pt 18.6894 17.1727 9.50926
Au 20.8341 18.3001 24.3748
Pt 10.8395 20.0815 20.6843
Pt 14.6721 17.8581 19.1469
Pt 23.453 15.0198 13.8964
Au 13.3942 12.9907 2.64462
Pt 22.7295 15.4232 8.8688
Au 21.6079 20.3754 22.7845
Pt 19.5987 6.53589 14.1311
Au 23.9552 13.7138 23.4834
Pt 10.3703 7.16358 15.1272
Au 25.815 21.314 15.0827
Pt 21.0638 18.5481 15.6946
Au 12.6595 3.41693 20.1353
Pt 23.4823 17.0404 19.5972
Au 21.5601 6.39049 20.6319
Pt 20.9922 16.2652 14.4686
Au 16.3838 21.5654 24.0775
Pt 12.5057 16.4776 19.1906
Au 25.6938 16.2138 17.913
Pt 18.6728 17.7876 14.3249
Au 25.3883 23.8187 14.2615
Pt 19.2928 19.5536 10.3903
Pt 21.7465 13.0452 17.5521
Pt 12.5466 5.79362 14.3108
Au 23.8248 9.17472 15.1025
Au 15.577 11.4117 3.71326
Pt 23.6152 19.8294 15.5324
Au 21.2197 5.33846 15.7549
Pt 20.2606 16.2378 7.60896
Au 14.1461 25.4459 18.4171
Pt 16.8666 23.7791 13.1323
Au 13.4382 13.102 26.9928
Pt 6.89394 19.833 16.7905
Au 6.47885 14.2173 6.83753
Pt 14.9048 14.5017 22.6865
Au 23.9016 7.3927 19.8228
Pt 19.7272 21.9067 16.2704
Au 7.86317 7.89664 18.8087
Pt 10.5594 21.9786 18.9069
Au 20.5176 6.18982 11.6193
Pt 14.1356 17.0859 21.6719
Au 5.92205 9.08248 17.1854
Pt 21.407 10.8188 11.4817
Au 19.1179 26.9613 16.8497
Pt 14.8001 23.0084 14.5156
Au 17.1807 16.4665 3.19861
Pt 17.6542 24.0995 10.6151
Au 16.9858 27.7261 15.1542
Au 17.2532 22.9472 7.00644
Pt 21.212 20.7571 14.3373
Au 19.0846 24.7464 21.8221
Pt 8.961 19.9655 15.1419
Au 18.7 26.0743 19.424
Pt 15.3846 25.2136 11.3515
Au 19.8662 11.1413 26.1202
Pt 14.4472 16.5362 8.36171
Au 16.2147 8.61109 25.2205
Pt 8.7623 17.6537 13.5791
Au 20.0501 13.5269 27.321
Pt 13.1816 20.7269 7.29408
Au 24.5377 22.0154 17.3796
Au 18.4272 17.6924 25.8341
Pt 17.2892 18.1741 23.377
Au 8.39115 14.5204 24.3386
Au 18.7036 21.9493 22.5313
Pt 23.7079 19.4122 18.4428
Au 16.5234 4.08239 23.0125
Pt 21.0574 15.9086 19.6233
Au 7.99592 8.86505 21.3956
