561
Atoms. Timestep: 20844
Pt 14.1992 5.38538 12.7093
Au 22.4468 9.61269 21.9483
Pt 22.6136 17.3928 11.6764
Au 22.51 6.26861 12.9826
Pt 10.9258 11.0161 18.5743
Pt 23.4112 16.6188 20.3314
Au 16.7588 26.1614 15.2625
Pt 15.7171 15.3364 15.819
Au 17.397 14.165 3.59681
Pt 7.96322 11.0807 15.9507
Au 11.704 10.7418 5.16313
Pt 8.29828 11.3639 18.4793
Au 20.1139 13.6075 3.81431
Pt 18.1848 17.2912 7.96786
Pt 16.2209 13.4103 9.79262
Au 10.4808 4.68197 18.7016
Au 24.6799 7.29883 14.2829
Pt 16.199 18.4366 9.38389
Au 14.0199 16.2559 26.7664
Pt 6.58754 19.8084 17.3894
Au 27.6142 12.7967 17.634
Pt 18.8548 15.6368 18.0599
Au 19.4211 23.826 19.804
Pt 18.682 14.704 20.7863
Au 5.54846 11.509 17.5858
Pt 20.7549 20.9521 17.9967
Au 14.9993 10.9662 26.9619
Au 21.9893 23.3224 19.7081
Pt 24.3526 12.6106 9.54232
Au 14.3994 18.7136 27.7837
Pt 12.6917 13.8998 12.4958
Au 20.0329 19.446 7.12232
Pt 12.4283 20.5666 8.50263
Au 27.0527 11.1719 15.4066
Au 9.52366 16.5849 26.0203
Pt 18.9297 20.8712 15.815
Pt 20.6354 11.3017 20.653
Pt 14.1379 11.8179 21.7168
Pt 11.0256 10.6365 12.0919
Pt 12.722 24.083 10.0388
Pt 18.8831 13.5657 10.6885
Pt 9.78631 15.1816 17.4312
Au 6.26535 10.4452 20.039
Pt 15.6267 6.1531 15.053
Au 4.57314 13.2946 15.7818
Pt 19.1117 16.7652 22.5444
Au 4.5703 12.375 20.9471
Pt 11.8198 12.7354 20.4607
Au 27.4187 15.6 17.4598
Pt 20.4639 20.305 13.5155
Au 15.4792 7.26334 6.07687
Pt 22.9469 19.479 14.065
Au 3.59439 15.09 13.5354
Pt 15.7971 18.8953 19.7861
Au 27.1074 15.6631 12.8672
Pt 17.9746 21.455 20.1721
Pt 17.8111 9.49424 12.6853
Pt 11.5336 6.76053 17.4547
Au 5.72555 22.2268 14.3724
Au 11.6685 15.0542 7.75806
Pt 21.005 14.7597 11.8601
Au 16.9598 25.2517 10.4133
Pt 16.5572 14.6794 18.799
Au 16.2032 9.53978 24.9934
Pt 16.5262 11.1278 22.8774
Au 16.0899 15.0996 25.619
Pt 14.5661 13.2853 16.9881
Au 6.28982 20.138 9.07131
Pt 9.42308 16.8561 11.2831
Au 12.6971 20.3062 26.3828
Pt 14.103 11.93 6.15022
Au 25.3809 19.2702 15.417
Pt 11.9235 16.5636 24.8822
Au 14.1697 26.9581 13.5411
Pt 23.3096 17.4554 16.0179
Au 26.3104 9.49039 12.8271
Pt 14.1832 15.7437 18.0796
Au 9.47906 14.5598 6.14146
Pt 18.1237 10.3482 20.2905
Pt 24.3621 10.1072 14.4053
Au 4.33969 10.6337 11.0972
Au 7.26878 24.3742 18.4424
Pt 22.121 8.59517 14.4406
Au 6.51879 16.213 24.0472
Pt 23.6939 8.7332 12.2248
Au 18.7026 10.6935 24.4938
Pt 7.74005 17.0056 16.7865
Au 5.85369 22.5175 19.8913
Pt 11.6755 24.4264 15.2162
Au 10.6206 19.0241 24.9046
Pt 7.2696 13.6809 9.99317
Au 15.1331 23.9713 21.7576
Pt 13.2061 18.0701 18.5848
Au 14.1757 3.68313 14.9082
Pt 12.0827 13.5834 17.8921
Au 26.2944 8.65859 15.9821
Pt 22.107 18.998 20.4736
Au 7.70191 19.1174 6.83222
Pt 15.0859 18.5187 22.3288
Au 21.0551 8.6509 16.9889
Pt 7.4864 14.6581 21.584
Au 25.4906 20.9469 17.6474
Au 12.0834 24.8615 20.8328
Pt 8.44017 18.475 19.3827
Au 9.39261 11.6136 6.48174
Pt 22.383 15.4532 18.1773
Au 25.4902 15.6432 22.0358
Pt 13.8137 19.22 10.4272
Au 19.1888 18.6117 24.7458
Pt 18.2315 16.0079 15.507
Au 19.9884 5.24887 13.7777
Pt 18.8266 12.2892 22.246
Au 20.7201 17.885 5.07702
Pt 18.6903 12.7163 19.1245
Au 8.34487 23.1783 10.5773
Pt 5.76223 17.7019 18.7093
Au 3.98249 18.3445 20.5283
Pt 20.8583 16.3018 16.2389
Au 24.3047 18.4842 22.06
Au 14.6558 6.6833 21.8424
Pt 17.0692 11.9426 11.8626
Au 15.8032 4.34833 17.0526
Au 4.29959 20.3429 15.9268
Pt 9.63563 22.9449 14.3451
Au 4.28146 20.8942 21.4322
Pt 17.5457 13.4278 16.5314
Au 12.949 26.9082 16.0359
Pt 12.0687 12.4268 10.1758
Au 18.6017 8.50493 18.3933
Pt 8.61143 9.77905 11.0609
Au 5.72057 19.1636 22.939
Au 9.90663 13.7347 22.1852
Pt 6.82833 16.2679 10.691
Pt 17.505 23.0051 12.1611
Pt 19.8969 12.2722 15.5231
Pt 13.6992 17.1085 8.79201
Pt 10.8496 21.8034 16.781
Pt 17.1451 18.6008 11.8906
Pt 18.6909 18.3693 14.225
Pt 5.92715 14.4773 12.3858
Pt 16.1202 6.61138 10.7897
Pt 7.59451 19.044 14.8312
Pt 11.9102 24.1141 17.7765
Au 3.26324 17.8975 14.4118
Au 20.7044 5.84967 10.951
Pt 24.7756 10.8916 16.9615
Au 16.9889 8.45954 22.4237
Pt 18.3666 14.5872 8.23814
Au 20.0551 6.18522 17.8743
Pt 12.2144 18.2347 7.0448
Au 14.2352 18.4786 25.1191
Pt 14.9455 16.8226 11.1829
Au 12.6043 26.4549 18.6975
Pt 24.2689 11.7281 12.2037
Au 16.6242 4.16239 13.5556
Pt 13.2524 24.4324 12.7711
Au 6.95622 17.3684 21.4766
Pt 17.7054 6.71888 13.369
Au 11.724 14.868 27.04
Pt 19.4611 8.83585 8.56755
Au 14.4214 7.8675 8.57222
Pt 9.43173 18.5367 22.2586
Au 8.22497 23.5284 20.8462
Pt 14.7711 21.5533 9.23018
Pt 18.7549 19.2345 9.59961
Au 14.91 24.4411 8.54455
Au 13.1062 4.3414 17.6751
Pt 19.747 22.7959 13.7871
Au 4.34509 16.6594 22.5453
Pt 14.3283 16.2346 23.5947
Au 8.422 8.84576 19.8241
Pt 11.4626 18.0986 20.6367
Au 21.29 6.7267 8.41183
Pt 10.0086 19.6095 8.1682
Au 21.6914 22.693 10.3284
Pt 11.0737 19.3765 10.552
Au 14.2363 9.2027 22.9234
Pt 15.6041 9.39704 10.8391
Au 25.6914 12.8069 21.7867
Pt 21.6829 12.2803 10.6378
Au 14.4355 26.1107 10.8732
Pt 8.2509 21.6957 18.5292
Au 16.1246 5.51196 8.17847
Pt 8.03092 11.183 8.89057
Au 5.53444 17.5768 8.64362
Pt 12.1021 16.1306 16.4394
Pt 20.4947 14.4541 22.7654
Au 11.6421 4.33928 8.76073
Au 26.4096 13.927 10.7379
Pt 10.852 14.7283 10.7324
Au 27.2174 14.0308 15.136
Pt 18.5396 21.1797 22.7941
Au 16.5784 19.8148 24.1209
Pt 13.9238 5.38863 9.70439
Au 6.10095 21.5062 11.439
Pt 11.8512 15.4572 19.6475
Au 12.9134 20.6321 5.71512
Pt 16.2323 11.8542 18.554
Au 14.1891 9.54685 4.69129
Pt 21.672 10.4374 12.6421
Au 4.18805 13.3768 10.6968
Pt 12.0522 19.4184 16.6637
Au 9.59516 6.60443 15.3699
Pt 8.34831 10.8663 13.3776
Au 19.6371 9.35031 22.3456
Pt 13.5045 7.46795 11.189
Au 8.9655 20.92 23.6383
Pt 25.1274 13.6595 17.3058
Pt 15.8395 21.1946 21.6739
Au 9.38341 11.4409 23.7227
Au 17.8113 23.6387 22.0222
Pt 13.5312 14.7992 10.1765
Au 7.94579 18.4479 24.4634
Pt 7.63782 15.69 19.005
Au 11.7292 26.3619 11.0117
Pt 17.6862 18.9502 21.7412
Au 3.30745 18.2809 17.3994
Pt 18.8757 18.139 17.0786
Au 20.7291 11.3037 5.68205
Pt 13.6508 11.207 18.9805
Au 15.0926 4.98406 19.6313
Pt 13.6462 22.4891 16.3583
Au 25.0982 15.0469 8.625
Pt 21.5363 10.3456 8.47767
Au 20.7114 21.0763 24.3618
Pt 15.6831 9.20859 17.9382
Au 16.2785 16.642 4.11538
Pt 19.7087 9.86902 14.6687
Au 14.5354 14.388 4.0777
Pt 25.3759 11.877 19.2521
Au 16.1995 22.5784 24.1257
Au 18.6263 11.3153 3.735
Pt 24.9313 14.2864 12.9424
Au 7.01964 24.2892 15.677
Pt 20.6428 14.0916 6.48684
Au 10.2719 8.98575 6.74935
Pt 20.2893 14.5625 14.4139
Au 9.84358 6.48672 20.6929
Pt 13.7118 8.40304 19.9968
Au 23.8753 11.6251 23.4074
Pt 14.7062 19.8819 17.4774
Au 18.8216 7.0706 20.7649
Pt 13.096 14.1768 24.6847
Au 24.944 13.9866 24.1639
Pt 12.8476 21.8525 11.2138
Au 18.6218 15.9812 25.547
Pt 23.6786 8.52715 16.522
Au 22.7638 13.0476 5.05767
Au 13.0813 22.3801 21.1333
Pt 8.18122 18.0942 9.27845
Pt 20.9182 19.0698 15.8215
Pt 20.6485 16.5355 7.44921
Pt 23.3685 14.5036 10.9758
Pt 15.1344 23.3062 11.0811
Pt 12.8793 9.09115 17.6186
Pt 24.1321 18.5704 18.6557
Pt 10.4693 10.6161 14.881
Pt 15.1711 20.6788 12.1632
Pt 11.052 8.43085 19.4781
Pt 9.43661 13.5844 19.4463
Pt 17.558 20.7726 13.5119
Pt 18.4867 7.81934 10.839
Au 20.609 23.6572 17.1854
Au 26.8898 12.3255 12.9546
Pt 16.8221 17.0857 23.7625
Au 18.2217 25.2483 17.3775
Pt 18.5538 15.7679 5.8015
Au 25.502 8.50691 10.2408
Pt 14.3312 24.8058 15.2754
Au 26.8115 14.3659 19.7726
Pt 10.755 20.1021 19.1361
Au 13.1666 3.2951 11.2135
Pt 6.44904 19.8859 20.2157
Au 11.4527 26.5601 13.6384
Pt 18.9297 16.133 12.6537
Au 16.3466 7.4062 19.8539
Pt 9.79111 13.1663 8.65071
Au 18.0985 18.4685 5.26138
Pt 16.592 12.9332 20.9684
Au 10.3508 14.0031 24.9255
Pt 16.2003 14.556 6.11912
Au 26.6796 18.4001 17.6566
Pt 13.8591 15.8758 6.29317
Pt 10.6744 22.1441 9.56908
Au 25.2564 8.51928 18.7012
Au 15.7029 19.8775 5.12239
Pt 14.1077 13.7694 7.91733
Au 21.1549 24.5054 12.4221
Pt 10.0087 12.6847 16.5008
Au 7.16634 16.2272 6.95002
Pt 12.876 21.5336 18.5933
Au 21.1952 11.7019 23.3757
Pt 10.3069 12.9546 13.5897
Au 17.2594 20.302 7.46781
Pt 7.03087 12.9348 14.2168
Au 5.65768 22.4259 17.1832
Pt 13.9188 16.7827 20.7529
Au 7.15003 12.0176 22.0833
Pt 15.6423 9.82462 6.97407
Au 9.64046 9.09058 17.0695
Pt 7.96055 16.7341 13.5521
Au 24.8785 12.8993 6.86687
Pt 20.5658 21.2268 20.5873
Au 9.49811 5.80014 9.69533
Pt 17.7091 17.0507 19.9711
Pt 24.1747 14.2395 19.7956
Au 22.2917 13.8361 24.808
Au 6.23304 9.21431 12.5821
Pt 10.5585 10.3183 9.15425
Au 23.4719 21.1323 19.5935
Pt 14.0171 20.2817 14.8846
Au 22.7283 7.04937 18.473
Pt 11.7109 8.45421 15.3653
Au 12.5387 7.7444 5.86373
Pt 15.8672 15.7266 8.4843
Au 25.3133 10.4551 8.14041
Pt 8.53309 14.4664 12.2685
Au 23.7684 16.4384 24.0478
Pt 20.4475 13.7626 17.467
Au 18.366 7.39345 6.43559
Pt 11.0851 17.1352 9.27319
Au 19.5233 12.0871 8.36308
Pt 11.8507 7.47706 8.86171
Au 7.46367 23.855 12.9801
Pt 7.24124 18.7325 11.8411
Au 9.09262 25.79 11.7368
Pt 15.1183 22.6246 13.8286
Pt 21.1195 17.3906 13.8162
Au 12.7287 23.0692 7.55726
Au 10.4396 26.3487 16.8358
Pt 8.84325 15.5194 8.9291
Au 5.20788 14.074 22.9033
Pt 21.107 14.3667 9.1273
Au 16.1389 11.8456 4.53396
Pt 22.7938 16.3695 9.22364
Au 12.0165 7.53931 22.155
Pt 13.0656 6.03183 15.4128
Au 17.7625 5.1917 18.8959
Pt 12.3042 22.1944 14.0091
Au 17.1794 23.0235 8.67943
Pt 17.3226 10.7274 9.37886
Au 6.28431 9.30436 9.78544
Pt 16.4844 16.5244 13.5202
Au 10.5508 21.7638 6.66832
Pt 11.9199 12.2949 23.1986
Au 13.8484 20.8874 23.557
Pt 22.2831 12.8636 13.4924
Au 21.9531 6.25967 15.7632
Pt 12.5 18.4573 23.0372
Pt 23.1082 12.0339 20.8717
Au 11.408 21.7849 24.5363
Au 13.4022 5.59922 7.12437
Pt 14.3338 6.79121 17.7429
Au 22.6485 20.9317 22.3346
Pt 22.4265 12.6418 7.80392
Au 9.83372 25.2876 19.2991
Pt 15.5764 21.8395 19.0499
Au 15.796 3.91406 10.8917
Pt 12.8626 9.77297 7.5138
Au 26.273 17.1765 20.0347
Pt 11.2738 20.5537 22.0245
Au 5.46808 11.8771 8.87585
Pt 16.529 12.3233 7.43964
Au 21.7267 15.5881 4.49672
Pt 9.19004 19.5238 17.0309
Au 24.861 17.3394 13.4801
Pt 16.3646 17.3082 17.6622
Au 12.5317 5.92273 19.9735
Pt 17.544 23.5434 14.9209
Au 3.09903 16.1573 18.9855
Pt 11.5373 16.0522 22.4237
Pt 14.1 24.0603 19.0821
Pt 12.8795 11.6243 13.8137
Pt 7.39708 13.6142 16.9412
Pt 9.8618 17.4204 15.4244
Pt 21.2626 18.4947 9.39646
Pt 14.6617 18.3377 13.2622
Pt 15.4171 13.659 23.3718
Pt 10.6648 8.05101 11.0334
Au 4.11253 16.1231 10.8526
Pt 7.97642 21.0438 13.2149
Au 21.2388 8.57139 6.45556
Pt 11.8944 12.1951 7.54142
Au 18.7037 5.96698 8.87345
Pt 5.4502 17.7897 15.8508
Au 15.1877 22.1187 6.68015
Pt 17.8112 14.5123 23.3595
Au 22.6773 22.1827 12.8781
Pt 19.5539 10.5379 10.8153
Au 10.9697 4.3895 16.0154
Pt 19.4217 19.0944 19.578
Au 20.5041 11.0004 18.036
Pt 5.47695 15.3583 17.5503
Au 8.82498 6.73191 18.1018
Pt 15.0934 13.1185 14.3374
Au 19.3168 23.9453 10.4058
Pt 10.5689 22.683 19.6195
Pt 14.3089 13.724 19.7163
Pt 12.5558 11.3381 16.3923
Au 25.2285 16.6056 10.895
Au 23.0771 14.3451 22.266
Pt 6.15011 15.3523 15.0002
Au 16.8838 9.10043 4.54175
Pt 12.1485 17.9308 14.39
Au 23.1657 15.27 6.76411
Pt 8.88851 14.7489 15.0329
Au 18.302 10.2418 6.57112
Pt 20.4979 16.5843 20.0374
Au 3.28886 15.7889 16.1547
Pt 9.66109 8.48275 13.3545
Au 22.3003 24.108 14.9107
Pt 17.3412 15.9409 10.5972
Au 13.8514 22.6446 25.6177
Pt 10.3251 21.4368 12.1739
Au 24.3188 21.7832 15.0189
Pt 13.5069 19.8387 20.6029
Au 15.1569 26.2186 17.6239
Pt 24.9144 15.4092 15.3889
Au 5.32425 14.8481 8.62428
Pt 21.7776 16.9039 22.2977
Pt 13.8231 15.8001 13.9144
Au 13.5248 11.965 3.56127
Au 4.38756 12.3371 13.2216
Pt 8.8712 20.8183 20.915
Au 11.4457 16.4533 5.11073
Pt 17.4811 11.5194 14.5424
Au 7.81046 7.28316 11.3656
Pt 9.13734 16.126 23.4375
Au 26.3864 11.0847 10.5593
Pt 9.46936 11.257 20.9048
Au 16.7413 24.4165 19.5659
Pt 21.5422 21.6926 15.4685
Au 3.85938 13.5363 18.6312
Pt 10.5749 17.5303 18.1552
Au 20.6447 23.0873 22.371
Pt 20.2894 19.1909 22.3306
Au 16.7974 12.4242 25.4459
Pt 15.6221 10.0416 20.5479
Au 12.9645 23.7685 23.4097
Pt 17.0258 8.83242 15.2042
Au 4.71357 18.8147 10.9458
Pt 15.5143 14.397 12.1003
Pt 15.9435 17.514 6.58991
Au 20.1661 7.85266 12.8761
Au 23.275 22.8154 17.3388
Pt 13.3144 14.3734 21.9775
Au 9.50872 16.2335 20.6725
Pt 19.6601 12.2477 12.8748
Au 25.0018 10.0628 21.108
Pt 19.2684 7.35734 15.4994
Au 14.2321 13.4483 26.9163
Pt 22.6211 13.9615 15.9255
Au 15.523 20.7344 26.394
Pt 14.524 11.3189 8.95119
Au 19.5213 13.3158 25.0623
Pt 10.8198 23.9446 12.1049
Au 18.9191 23.2178 24.4576
Pt 24.8887 16.2196 17.9211
Au 9.11267 25.5819 14.5164
Pt 9.37888 12.3309 11.0807
Au 19.6142 21.7036 8.66264
Pt 19.5455 21.3203 11.36
Au 18.2445 4.92341 11.4362
Pt 16.2693 21.4391 15.9446
Au 24.0435 18.8312 9.56251
Pt 10.8451 15.7287 13.4902
Au 22.2839 18.8161 24.141
Au 9.62076 8.91495 22.236
Pt 15.3107 10.4486 13.4236
Au 16.7093 18.0288 26.3244
Pt 6.62092 13.2096 19.4761
Au 19.1798 16.2994 3.41065
Pt 24.7194 12.6087 14.8965
Au 6.72944 21.6646 22.3569
Pt 9.67035 17.1937 7.00769
Au 20.8806 8.52575 19.9285
Pt 11.6981 5.50127 11.1168
Au 10.3775 19.2809 5.43306
Pt 14.253 17.6175 15.9822
Au 5.5873 10.5701 14.8996
Pt 10.3811 20.2854 14.738
Pt 19.8387 16.4179 10.0829
Pt 9.8047 18.7371 12.8665
Pt 14.3541 11.9958 11.485
Au 11.9886 10.1641 21.3002
Pt 22.0715 20.0712 11.3274
Au 12.0894 11.8825 25.9745
Pt 17.3868 20.0147 17.9801
Au 4.23611 20.5024 18.7206
Pt 14.257 11.5865 24.4556
Au 11.8143 4.09032 13.4812
Pt 11.8183 6.82542 13.3232
Au 11.5557 9.74875 24.024
Pt 19.9073 18.4878 11.7544
Pt 5.43288 17.079 13.0529
Pt 22.2782 11.067 15.7345
Au 25.8343 19.8466 20.1649
Pt 15.3839 7.83361 13.0569
Au 7.73862 13.761 24.1693
Pt 9.34725 23.8382 16.9526
Au 18.2519 21.018 25.7525
Pt 21.2313 13.9194 20.1477
Au 22.271 20.7401 8.44205
Pt 15.2675 10.974 16.07
Au 23.4052 6.70067 10.3843
Pt 12.3417 13.8743 15.2152
Au 7.28611 13.3735 7.26831
Pt 23.0951 20.0915 16.895
Au 23.3221 10.5278 6.32483
Pt 16.0845 15.5961 21.4839
Au 23.028 9.92157 19.0254
Pt 21.5482 18.0801 18.1331
Au 24.7272 19.6621 12.1314
Pt 12.9046 9.81061 10.3125
Pt 17.6916 13.9947 13.6831
Pt 8.59979 20.4584 10.4779
Au 8.25808 21.7442 8.0933
Au 19.7705 25.2156 15.0945
Pt 6.65231 11.7868 11.593
Au 9.48999 5.64474 12.6929
Pt 7.97226 21.6189 15.8763
Au 12.0826 13.6993 5.24407
Pt 14.5726 19.47 7.55637
Au 21.4137 8.50844 10.5282
Pt 17.0703 21.0018 10.4147
Au 22.7279 18.2081 7.08185
Pt 12.4591 19.8293 12.7461
Au 27.1743 10.2181 18.0842
Pt 16.9566 6.95806 17.103
Au 13.7473 18.0676 4.77117
Pt 15.8969 23.7655 17.0499
Au 11.8196 17.8175 27.1818
Pt 16.4875 18.8561 15.3932
Au 3.04912 14.5873 21.2185
Pt 15.9104 25.0073 13.0259
Au 10.4374 23.1253 22.3391
Pt 22.8097 15.5393 13.7617
Au 19.5569 8.94547 4.49627
Pt 22.8134 12.5073 18.1621
Au 10.2203 24.7576 9.36283
Au 24.0842 21.5133 10.3586
Pt 18.0176 10.6877 17.0047
Au 10.5068 6.20792 7.10366
Pt 12.951 9.16852 13.0745
Au 8.72437 8.22157 8.79094
Pt 12.3286 17.1008 11.7165
Au 18.2075 4.89024 15.849
Pt 16.9687 8.1573 8.64038
Au 18.5523 25.4563 12.7467
Pt 18.4168 12.9783 5.86546
Au 7.54648 8.49182 14.9546
Pt 14.3683 8.5395 15.4649
Au 21.1085 16.335 24.8132
Au 6.87098 9.07311 17.55
Pt 18.1905 22.54 17.7056
Au 27.0208 17.0412 15.2389
Au 13.5485 9.27779 25.6323
Pt 5.30767 15.4496 20.3189
Au 23.5003 8.37197 8.18591
Pt 23.4727 10.2734 10.176
Au 5.20948 19.7356 13.4772
