561
Atoms. Timestep: 20565
Pt 8.80356 18.9561 22.7768
Au 17.148 26.4716 17.9988
Pt 22.9222 19.5976 21.3331
Au 12.2003 21.9752 22.3392
Pt 11.4463 10.3738 11.0648
Pt 16.5815 16.8386 11.3819
Au 12.4416 15.6087 4.98893
Pt 19.0068 9.03215 18.5065
Au 21.2747 9.9933 23.8962
Pt 20.2606 20.7207 21.2601
Au 16.4763 28.5407 16.2837
Pt 15.6194 19.2003 12.6771
Au 19.517 20.3545 6.76923
Pt 18.8579 6.21784 14.6336
Pt 16.9862 16.8016 22.6075
Au 7.8691 13.154 6.38062
Au 16.5568 6.97715 6.92512
Pt 22.0298 21.055 11.9156
Au 19.1072 15.9354 4.45531
Pt 12.0397 12.547 12.5644
Au 4.37681 21.1552 17.5211
Pt 24.4729 13.8692 16.2939
Au 19.4466 13.4113 5.61476
Pt 13.0894 15.0603 22.0827
Au 12.6741 4.19954 17.2717
Pt 15.3099 7.49188 9.25237
Au 5.18228 15.0816 8.57429
Au 22.1387 19.8114 7.58594
Pt 18.1737 15.2206 14.7723
Au 18.6856 25.4747 20.345
Pt 16.7819 14.751 24.8284
Au 14.6897 2.78272 11.929
Pt 22.1203 16.7947 17.7838
Au 14.4989 5.27984 7.99433
Au 11.3147 25.092 13.3192
Pt 20.832 10.7641 17.0748
Pt 21.8489 21.3669 16.5223
Pt 7.06938 14.2385 18.0009
Pt 22.4493 12.0805 15.1774
Pt 10.1808 14.2212 13.5353
Pt 21.755 12.5238 19.1254
Pt 21.5781 11.351 21.5458
Au 10.5791 12.3407 24.9041
Pt 8.67962 15.6662 19.586
Au 21.3653 9.63038 8.75263
Pt 10.868 23.166 11.1948
Au 23.9968 11.6166 20.2113
Pt 13.573 20.6773 20.1117
Au 15.6277 3.04611 9.22575
Pt 7.70514 18.4263 16.6849
Au 10.0643 11.4033 6.7257
Pt 21.5418 12.865 23.6528
Au 8.13431 7.11744 17.8403
Pt 17.2654 23.3271 11.9763
Au 26.1579 18.9346 18.6473
Pt 6.7744 20.0457 18.5215
Pt 18.8358 16.1322 9.77818
Pt 20.629 14.9408 19.0892
Au 20.0665 3.67 17.9725
Au 7.47535 11.6443 17.588
Pt 11.5223 12.5679 15.3083
Au 3.4318 16.8057 15.5226
Pt 19.0745 11.3503 22.6492
Au 18.5958 26.3903 15.6975
Pt 14.9396 13.5242 23.2462
Au 13.5518 3.2022 14.6383
Pt 15.2537 23.8076 14.0382
Au 13.8646 20.2522 6.06441
Pt 22.489 8.00381 12.834
Au 25.4941 16.2223 14.5333
Pt 17.0338 12.6759 14.5373
Au 10.1579 17.6174 24.781
Pt 16.9693 12.0598 23.9556
Au 25.6967 9.58273 16.7804
Pt 14.7895 13.9398 8.68611
Au 25.6807 15.0397 11.9341
Pt 12.1774 12.6486 22.7335
Au 16.9101 23.7417 21.3644
Pt 21.1023 14.7711 13.5788
Pt 23.0136 9.56429 15.8995
Au 4.79859 12.9133 10.2776
Au 19.8954 25.4671 17.9844
Pt 15.4744 22.5049 19.2769
Au 26.0408 12.287 12.1814
Pt 12.1431 20.5486 8.96414
Au 22.1599 23.8978 17.7768
Pt 18.6217 17.98 15.6372
Au 23.101 6.839 19.7887
Pt 10.2767 11.8964 17.7672
Au 24.0501 16.2058 9.71161
Pt 8.86534 9.36895 10.9417
Au 7.69003 26.3338 11.6772
Pt 16.2333 22.7396 9.46854
Au 9.14472 9.52993 18.3584
Pt 14.0785 16.7002 12.4716
Au 11.8134 4.9515 7.98599
Pt 14.8005 20.7507 8.55386
Au 9.00684 8.60108 6.41981
Pt 17.8409 21.4589 19.8469
Au 24.7936 20.8445 19.9653
Pt 19.4346 17.2787 18.5544
Au 15.1813 12.8722 26.0939
Au 15.4417 28.2041 12.8777
Pt 15.0745 7.65476 12.119
Au 25.6891 18.8958 13.8674
Pt 12.1604 20.8749 11.5849
Au 6.28915 7.56606 15.8516
Pt 17.1466 5.65378 12.6895
Au 7.34661 13.3731 9.1717
Pt 13.6935 7.81063 19.6009
Au 19.08 15.7497 7.097
Pt 20.1411 15.6812 16.3425
Au 9.9036 13.9693 8.05066
Pt 15.5623 11.6044 7.11119
Au 15.0344 21.9808 22.0744
Pt 17.4868 16.2418 17.17
Au 14.5526 4.05115 19.3251
Pt 12.1275 10.9404 8.47348
Au 21.1247 25.2059 15.4697
Au 23.6591 23.021 12.4785
Pt 23.1655 10.3993 13.3186
Au 17.7214 27.408 11.2935
Au 14.7148 15.0841 3.52281
Pt 16.3742 19.6953 15.3616
Au 14.5001 27.2061 17.6786
Pt 21.8846 13.8265 16.9116
Au 24.7296 18.9818 8.80777
Pt 17.6408 20.5578 8.69558
Au 8.26966 6.60896 10.81
Pt 9.96124 16.9399 21.7301
Au 8.12042 24.8386 16.1782
Au 25.4808 13.0907 21.9078
Pt 23.5668 11.7405 11.2127
Pt 5.94198 17.9098 14.795
Pt 14.3876 18.0461 19.1465
Pt 23.1091 18.6888 12.8416
Pt 14.6646 6.47777 17.4346
Pt 16.4825 16.0949 8.50799
Pt 14.3395 21.2261 13.8933
Pt 17.0841 14.2562 10.3811
Pt 22.0965 16.4073 20.692
Pt 15.3293 17.7435 16.686
Pt 13.9589 10.7497 12.2164
Au 22.2136 22.3426 21.9186
Au 17.6913 11.3718 5.47248
Pt 15.3213 10.8155 22.4092
Au 17.0436 8.99266 23.5016
Pt 12.6984 23.2321 15.4336
Au 3.81652 19.6316 14.9064
Pt 11.3409 16.8666 13.369
Au 11.0429 6.661 6.08349
Pt 23.3873 19.4743 17.7981
Au 15.8758 9.27128 5.52597
Pt 18.0306 7.48145 20.9186
Au 25.6084 10.1844 21.638
Pt 19.9821 13.5911 21.3714
Au 18.2191 22.8867 7.35088
Pt 14.1532 13.8514 11.3752
Au 8.61054 12.8642 19.8038
Pt 8.35182 22.0858 17.0139
Au 19.3495 25.0448 11.3065
Pt 14.1777 9.43275 7.6718
Au 17.8204 12.3421 26.5024
Pt 13.0281 14.4671 19.3256
Pt 16.0521 6.15527 19.6685
Au 10.9442 4.36352 14.9897
Au 15.3479 3.90869 16.6199
Pt 19.0176 16.1626 24.1518
Au 7.62572 10.7963 7.76176
Pt 7.92838 12.8038 13.8237
Au 3.58897 11.242 14.6354
Pt 12.9171 14.7333 13.874
Au 21.5392 6.85118 22.1413
Pt 19.0954 11.8595 10.8306
Au 23.7492 23.3761 19.9555
Pt 13.1477 11.5517 6.12355
Au 7.02784 7.01325 13.2931
Pt 6.46893 10.3906 15.5077
Au 19.8022 26.7306 13.3121
Pt 11.4164 17.9466 10.7055
Au 19.7438 24.7115 8.65128
Pt 16.3052 12.2079 11.9049
Au 21.1009 7.42884 10.4689
Pt 6.73432 17.1731 18.7839
Au 8.77689 24.2108 12.5636
Pt 23.81 11.5676 17.5341
Pt 9.53481 19.8084 17.9392
Au 5.89997 23.2489 16.7554
Au 4.16942 9.12256 16.2738
Pt 11.9444 16.029 8.58966
Au 21.2413 4.76954 20.1742
Pt 10.7684 10.0069 13.7922
Au 6.1312 18.5433 23.1834
Pt 11.8922 9.68344 19.0436
Au 23.6594 14.6248 23.8298
Pt 7.14496 15.9454 10.1456
Au 11.2895 19.8902 23.8995
Pt 19.8562 12.8941 15.0679
Au 14.434 11.5035 9.68852
Pt 17.1491 21.8352 14.0954
Au 10.2725 27.0741 11.8115
Pt 21.2988 18.7532 19.5297
Au 6.86775 12.4558 22.1634
Pt 9.55764 11.6634 9.52219
Au 9.88508 26.015 18.408
Pt 15.829 26.2663 15.2434
Au 25.5457 20.082 16.2859
Pt 19.2673 13.5061 8.60342
Pt 6.69475 14.1366 11.9844
Au 18.1327 4.04482 16.0607
Au 12.9189 22.617 7.19491
Pt 10.7522 25.4093 15.9647
Au 19.2325 5.3354 22.0514
Pt 20.9432 17.3204 14.2109
Au 12.2823 5.51631 19.668
Pt 12.2023 19.3081 18.3095
Au 12.5424 25.2453 18.3578
Pt 10.8154 14.5654 20.7589
Au 26.8605 15.0493 16.869
Pt 14.5866 17.371 21.6125
Au 19.291 5.36606 10.9016
Pt 13.3324 18.3586 8.27471
Au 20.0832 19.8187 25.7915
Pt 7.19634 17.0328 21.4099
Au 26.3866 16.3236 19.2538
Pt 11.802 15.3223 11.2629
Au 26.3863 10.9173 19.143
Pt 17.3644 6.52741 17.2753
Au 20.5744 12.1161 26.0157
Pt 14.0972 16.1223 7.06326
Au 19.6379 21.6436 23.9689
Au 8.61749 10.6735 23.5244
Pt 5.74876 11.7508 13.2938
Au 13.0893 3.60966 9.9302
Pt 15.9995 18.6221 9.58825
Au 23.5105 9.08784 10.4498
Pt 13.7916 19.0179 10.7747
Au 10.4867 13.6884 5.28695
Pt 18.4717 18.5969 10.4797
Au 14.7892 21.1091 24.5936
Pt 22.1402 21.3389 19.2785
Au 4.49211 15.5978 11.1769
Pt 21.7527 9.80862 19.4033
Au 25.1909 13.4334 9.77016
Pt 10.276 17.3902 18.5135
Au 19.3708 7.68686 23.5669
Pt 16.0125 19.0636 23.3125
Au 5.47536 18.1419 10.372
Au 23.3856 17.4299 23.0294
Pt 13.0294 23.2174 12.6781
Pt 18.8972 22.5926 10.0244
Pt 19.6412 8.00679 12.7062
Pt 22.8424 14.2409 11.0575
Pt 20.6872 10.0747 14.3698
Pt 8.60569 18.8462 20.1702
Pt 15.9755 19.631 20.6216
Pt 15.3723 8.27563 21.4521
Pt 12.1471 7.32055 17.4738
Pt 23.9636 17.671 19.5512
Pt 17.21 11.1351 18.3754
Pt 13.9861 9.23384 17.1883
Pt 15.3644 11.4785 16.3743
Au 4.56662 11.5852 17.1872
Au 17.1633 25.2369 9.60189
Pt 20.5954 17.8863 8.80672
Au 6.52309 24.9583 13.8288
Pt 15.0187 24.5005 17.2486
Au 10.59 4.91048 10.4587
Pt 13.647 11.3722 24.3708
Au 22.903 17.1699 7.47235
Pt 13.5784 19.6321 22.4963
Au 5.7175 12.1222 19.6262
Pt 14.2186 16.3183 9.90972
Au 17.1668 3.50253 18.585
Pt 18.1624 18.1334 7.7651
Au 4.73032 18.4971 17.3294
Pt 14.6214 16.1586 23.9643
Au 13.8393 7.28243 6.06132
Pt 10.4417 18.5572 8.27262
Au 21.1662 5.65082 12.8747
Pt 19.1775 13.5166 24.2978
Au 23.6116 11.3718 8.45924
Pt 12.5818 8.41822 12.8605
Pt 16.4859 8.91127 16.2223
Au 22.3653 5.30522 17.5907
Au 17.3947 20.323 25.3097
Pt 18.9516 16.4734 12.5582
Au 19.5128 23.3295 21.9149
Pt 8.39984 14.7254 22.0223
Au 20.953 22.3821 7.97358
Pt 8.44703 18.3606 10.8773
Au 15.8172 10.2506 25.5395
Pt 15.6653 18.3506 6.968
Au 23.7587 11.4681 23.2
Pt 13.9811 25.943 13.1287
Au 12.369 16.478 25.7441
Pt 13.2791 25.7265 15.6091
Au 7.58128 15.627 7.42011
Pt 9.14496 16.1932 12.1368
Au 10.2699 23.94 20.4513
Pt 17.0767 11.8425 9.23556
Au 22.8375 13.8372 21.3687
Pt 17.4324 21.5897 17.1832
Au 10.5567 22.8223 8.50478
Pt 11.6892 6.02075 12.8857
Pt 16.0482 6.02011 15.0483
Au 15.247 11.7491 4.21235
Au 5.20048 18.899 20.3546
Pt 18.4874 10.6065 13.0553
Au 11.0472 20.6593 6.55578
Pt 11.2185 21.2261 16.6494
Au 15.5234 22.9523 6.89874
Pt 18.9197 9.39783 10.2314
Au 21.8693 20.0806 23.7282
Pt 6.66583 17.0268 12.5155
Au 7.28133 19.7279 13.0733
Pt 12.9316 10.162 21.5276
Au 6.92411 20.4674 10.2503
Pt 16.8013 12.4324 20.8201
Au 19.0433 7.37366 8.47323
Pt 15.1838 12.963 18.5971
Au 17.0912 13.8981 4.23617
Pt 19.8997 6.2757 17.18
Au 17.001 22.7147 23.9874
Pt 20.0545 9.16719 21.4554
Au 21.5398 15.1953 6.05801
Pt 15.1206 22.1657 16.157
Pt 9.21388 21.6042 12.5904
Au 11.3607 9.98179 23.7038
Au 23.2198 21.4665 9.47492
Pt 12.3694 7.53276 8.36025
Au 19.2338 10.9409 7.76001
Pt 17.4966 7.34874 10.7649
Au 14.4667 24.8527 8.62115
Pt 10.7187 14.5013 18.0734
Au 23.4153 23.6225 15.2783
Pt 13.2301 5.85876 15.2802
Au 18.8331 10.2059 25.1385
Pt 13.2 22.852 9.84999
Au 17.8679 18.378 5.10016
Pt 14.4166 8.07881 14.7427
Au 14.8571 15.5667 26.5291
Pt 10.0133 23.1183 14.9153
Au 12.8443 13.9643 25.1117
Pt 18.5749 13.5728 12.739
Au 24.3785 9.09139 19.1169
Pt 16.8602 9.38931 8.30557
Au 26.5272 13.7265 14.4199
Pt 17.2199 8.15472 13.6617
Pt 16.0742 14.7485 12.9319
Au 13.9002 18.5974 25.091
Au 14.2664 5.75072 21.6413
Pt 7.76991 9.80979 13.312
Au 16.8116 4.21241 21.2191
Pt 21.291 19.9373 14.2785
Au 15.0348 26.9028 10.5519
Pt 9.10771 20.2797 15.109
Au 23.5136 14.1618 7.82735
Pt 17.2539 24.0277 15.8474
Au 17.7772 28.2956 13.9733
Pt 18.3105 10.9256 15.974
Au 25.7241 10.7453 9.92862
Pt 19.9877 22.8872 19.2703
Au 9.21431 4.97589 12.8512
Pt 13.1444 22.4481 17.9639
Au 17.3658 3.33904 11.257
Pt 9.54483 11.7007 12.2789
Au 20.9254 4.4554 15.3779
Pt 7.65466 15.3366 14.4486
Au 7.8514 24.2449 18.8227
Pt 16.3174 9.73732 11.04
Pt 19.2338 16.2259 21.1736
Pt 11.5644 21.1531 14.0865
Pt 9.03056 13.6611 16.1005
Pt 21.4346 16.6255 11.1874
Pt 9.57045 7.75439 13.0229
Pt 14.7191 10.4524 19.5307
Pt 11.1722 21.5196 19.6021
Pt 9.41809 13.9408 10.8634
Au 7.67661 23.357 21.421
Pt 17.6777 20.8634 22.3271
Au 19.0847 3.819 13.3497
Pt 16.5273 16.0139 5.84406
Au 3.70119 13.3595 12.7652
Pt 13.4499 19.7963 15.9315
Au 12.8642 13.1011 3.90934
Pt 14.7431 13.8471 5.87298
Au 11.8573 27.6136 17.0412
Pt 17.3249 20.74 11.3358
Au 25.8531 13.5913 19.1491
Pt 13.9954 12.5982 20.8989
Au 5.4409 12.5611 7.56013
Pt 19.5019 21.6211 12.5439
Au 6.28453 20.49 15.7704
Pt 9.73618 12.4383 22.1581
Au 7.47851 8.32592 8.77909
Pt 14.2989 5.24917 13.0026
Pt 10.4904 23.4763 17.7727
Pt 8.77393 8.60908 15.616
Au 4.80485 20.2058 12.3293
Au 25.3069 17.825 11.3995
Pt 16.3416 8.55236 18.8014
Au 11.6972 9.19305 6.23419
Pt 22.8206 15.7097 15.3605
Au 5.02447 8.97116 13.6861
Pt 5.76963 15.9429 16.5363
Au 6.40694 22.5363 12.04
Pt 11.2066 19.3038 21.0871
Au 6.20576 8.69225 11.2212
Pt 21.2476 22.5733 14.2114
Au 10.1638 9.78187 21.2296
Pt 15.4647 14.9292 20.8476
Au 7.62493 10.3733 20.5518
Pt 12.9492 11.7653 17.6204
Au 16.3309 3.3946 14.0031
Pt 10.1889 19.1605 12.7864
Au 8.89652 26.4887 14.1425
Pt 19.0698 24.0304 13.9231
Au 10.2676 5.49413 17.4761
Pt 17.0814 13.6196 16.9235
Pt 21.2901 7.45946 15.0598
Au 11.9663 3.46117 12.4399
Au 4.12986 10.6108 11.6431
Pt 16.8329 17.0478 19.8579
Au 3.46411 13.9117 15.5211
Pt 13.1936 10.4515 14.8318
Au 15.3334 25.3271 19.7543
Pt 12.4607 13.7977 7.2113
Au 3.95988 17.6794 12.8887
Pt 21.1352 10.037 11.5219
Au 4.58301 16.7428 21.8424
Pt 10.1964 9.19523 8.65057
Au 11.1785 11.0826 4.30571
Pt 8.63615 16.1123 16.8588
Au 18.4954 8.81307 6.24967
Pt 20.3669 20.4596 9.74972
Au 12.1655 7.63333 21.8539
Pt 21.7169 8.09665 17.553
Au 13.5103 9.61026 4.30229
Pt 20.7946 18.1297 22.2086
Au 16.8003 16.6751 3.30505
Pt 18.5938 18.8186 20.7013
Pt 17.6265 14.3013 22.3514
Au 9.57486 21.4535 22.1632
Au 25.4903 9.59455 12.3065
Pt 19.1563 20.6967 15.4483
Au 14.5433 17.6327 4.65839
Pt 19.7191 20.4696 18.2337
Au 24.8561 15.7388 21.416
Pt 14.4078 12.7094 14.1495
Au 16.7316 20.6759 6.12466
Pt 13.4741 8.98399 10.29
Au 8.58944 21.7072 19.6339
Pt 10.9225 7.65136 10.6953
Au 7.44495 22.5616 14.4953
Pt 21.3466 15.2318 8.80774
Au 4.15992 16.5647 19.1337
Pt 11.2464 9.68103 16.4462
Au 13.1845 23.6097 20.4627
Pt 18.6361 5.44834 19.4047
Au 17.8892 14.4893 19.4083
Pt 20.4827 18.8959 11.9816
Au 4.35878 14.1273 18.0788
Pt 13.4699 17.0478 15.0909
Au 21.4296 24.7002 20.4143
Pt 20.1837 14.3301 11.0202
Au 21.4654 23.3288 10.5696
Au 26.6096 12.2732 16.8429
Pt 7.12635 11.4434 11.0731
Au 21.3434 17.5391 24.909
Pt 17.5932 23.8807 18.4938
Au 7.61464 18.2122 8.34723
Pt 11.0092 15.6586 15.7058
Au 8.29427 22.8205 10.0564
Pt 20.4713 7.2545 19.7143
Au 6.90514 20.6427 21.5651
Pt 16.9847 25.683 13.0358
Au 5.43367 10.3963 9.23751
Pt 12.6815 16.6653 17.5826
Au 12.0516 18.1403 5.95427
Pt 23.4141 16.1523 12.8328
Pt 13.2465 14.1681 16.6054
Pt 9.11519 11.1384 15.4109
Pt 23.3958 18.3313 15.4264
Au 24.2831 22.1336 17.5203
Pt 9.55412 16.329 9.40759
Au 8.19123 13.4978 24.3901
Pt 21.2228 12.3429 12.685
Au 25.4665 18.5246 21.4368
Pt 17.1243 13.7397 7.14245
Au 24.2244 7.23293 17.0136
Pt 12.2296 16.961 20.2708
Au 11.4543 27.6348 14.3305
Pt 21.2116 15.4714 22.96
Pt 18.7612 18.7516 23.6169
Pt 24.6654 16.6732 17.1491
Au 21.4992 12.5034 7.06768
Pt 15.914 10.3172 13.9139
Au 10.0949 16.3154 6.53521
Pt 9.88208 20.4884 10.2968
Au 23.2877 5.8625 14.796
Pt 15.1728 15.5649 18.2082
Au 14.0279 8.72435 23.7676
Pt 19.3957 11.4156 19.8542
Au 8.60356 5.9284 15.3264
Pt 12.2495 17.3868 23.0823
Au 17.3776 5.18012 8.85556
Pt 8.87023 17.5903 14.4613
Au 26.9136 17.756 16.2937
Pt 10.7488 14.9635 23.4383
Au 23.0971 9.06233 21.7414
Pt 20.9208 18.7539 16.6422
Au 24.7244 20.5119 11.5838
Pt 17.4544 19.0353 18.0469
Pt 11.0669 7.31843 15.14
Pt 17.4356 9.94813 20.9062
Au 10.3661 7.42643 19.629
Au 21.7078 24.8365 12.8429
Pt 15.391 15.0668 15.46
Au 20.54 17.8796 6.03639
Pt 14.8805 21.5395 11.3799
Au 12.4447 25.4926 10.6338
Pt 11.0652 18.4517 15.8271
Au 18.7636 14.8635 26.6709
Pt 12.9224 18.9755 13.3714
Au 6.27869 9.27938 18.0987
Pt 12.0306 13.1751 9.80715
Au 7.9434 16.4535 24.0843
Pt 13.1127 6.22858 10.6026
Au 8.69226 20.7458 7.99367
Pt 15.0151 24.3721 11.2914
Au 19.0619 17.5221 26.457
Pt 15.1091 20.2375 17.9481
Au 22.678 18.8176 10.2197
Pt 15.4762 5.23015 10.688
Au 16.5844 17.5074 25.4724
Pt 6.06146 13.2657 15.6345
Au 9.64477 25.2008 10.0146
Pt 11.5071 12.0905 20.08
Au 5.97217 14.9011 23.2056
Au 9.5979 6.54993 8.36746
Pt 19.0818 8.5174 15.8998
Au 24.7412 8.17372 14.4412
Pt 16.3803 17.187 14.1542
Au 21.2947 14.8412 25.6071
Pt 23.8256 13.5287 13.508
Au 13.9552 28.3369 15.1316
Pt 23.5616 14.815 18.8837
Au 25.225 11.2807 14.7213
Pt 21.4538 12.3049 9.72261
Au 23.8325 21.0418 14.3711
Pt 19.4285 12.9716 17.6873
Au 16.6897 6.31401 22.9236
Au 12.8403 27.9638 11.9878
Pt 18.2724 19.1502 13.312
Au 4.78145 22.186 14.3097
Au 9.97511 15.0028 25.8486
Pt 5.10469 15.3159 13.936
Au 5.94071 14.7441 20.4451
Pt 19.6907 23.08 16.5566
Au 5.90316 22.3886 19.4512
