561
Atoms. Timestep: 20438
Pt 18.991 10.2985 22.3584
Au 5.2984 17.5722 22.6292
Pt 11.4849 7.94542 18.8059
Au 3.81549 12.6161 13.68
Pt 12.2701 16.4193 9.29081
Pt 7.72031 11.3 7.98409
Au 12.1698 18.9868 3.41731
Pt 8.69972 14.0211 7.69995
Au 15.4678 22.4217 20.1803
Pt 12.576 18.0922 20.5608
Au 4.37899 19.2729 17.3474
Pt 18.6853 14.9618 23.4342
Au 23.3323 6.65449 11.9884
Pt 20.0524 8.67117 17.8821
Pt 8.98136 16.9874 15.1552
Au 6.07807 17.4004 9.25072
Au 27.2223 12.5413 10.6612
Pt 7.89682 17.88 22.726
Au 13.7271 10.3334 25.2413
Pt 13.4764 20.1266 25.2062
Au 8.72902 18.7896 25.1324
Pt 12.9947 22.2566 21.4718
Au 8.30187 6.90555 14.6825
Pt 15.1959 7.44679 16.2305
Au 20.5735 16.3489 27.059
Pt 21.5192 15.0018 22.7857
Au 12.7939 24.8375 11.4563
Au 17.6454 15.5203 3.31852
Pt 10.6692 18.2659 13.0606
Au 12.7809 5.84929 20.1102
Pt 19.7275 16.6117 21.6508
Au 17.8094 6.43938 21.4291
Pt 17.98 13.8868 6.00766
Au 20.4074 16.3133 3.75859
Au 16.6628 12.966 3.76922
Pt 23.1534 11.3393 9.21404
Pt 14.0601 9.12388 14.3248
Pt 13.5606 14.2747 13.5091
Pt 21.6619 13.5287 17.9463
Pt 13.1131 6.65304 14.4877
Pt 23.5078 17.2436 13.2153
Pt 19.8378 18.6821 10.5888
Au 22.4161 7.76604 18.8775
Pt 8.13341 16.4664 17.8294
Au 21.7892 6.81637 9.59392
Pt 11.7322 13.0246 11.2746
Au 22.6081 15.4645 25.2702
Pt 21.5241 18.1222 16.9266
Au 18.3066 26.7706 15.7605
Pt 17.5582 20.7917 24.2363
Au 6.10669 9.92161 9.70369
Pt 18.1615 9.1833 19.864
Au 4.84852 15.8201 11.2657
Pt 13.0962 21.7878 18.7773
Au 22.4146 17.3223 10.5692
Pt 21.6804 12.102 20.2785
Pt 14.8061 20.0721 9.5974
Pt 12.0599 16.0617 6.81806
Au 25.0102 16.579 20.3956
Au 5.00848 12.0067 8.53702
Pt 13.1658 8.73213 20.8015
Au 13.3083 9.60055 4.91482
Pt 20.3854 16.9197 24.3547
Au 16.496 14.3619 27.8637
Pt 19.1955 17.4755 8.18593
Au 16.7182 10.5026 24.8138
Pt 14.4244 14.7838 7.7059
Au 20.6423 25.2685 14.6962
Pt 12.3761 8.60238 12.3163
Au 14.4341 5.86106 9.25738
Pt 17.1469 8.7089 11.47
Au 14.8398 24.0742 22.4001
Pt 14.6182 18.2063 22.6572
Au 23.3193 14.2583 20.306
Pt 14.7194 9.48659 22.8895
Au 9.49959 4.30235 13.8066
Pt 21.3375 7.54745 13.7366
Au 23.6447 22.8498 17.3298
Pt 23.6918 10.5252 11.819
Pt 13.5166 22.3883 10.4922
Au 19.7305 26.5048 18.086
Au 15.7608 21.209 26.3981
Pt 14.1905 15.3798 23.6714
Au 15.7729 17.5455 2.84932
Pt 10.6663 13.9622 5.53032
Au 21.1165 20.8225 6.59212
Pt 13.2069 13.1626 24.7335
Au 24.2351 8.32155 16.8838
Pt 10.3255 18.4704 22.2147
Au 11.0733 11.2666 4.51499
Pt 12.2054 8.88041 23.3645
Au 8.68118 23.7381 14.802
Pt 15.1932 21.514 17.0906
Au 5.95215 20.0685 9.30415
Pt 8.87457 21.2053 15.9213
Au 15.8709 4.96939 17.5361
Pt 19.5244 20.9208 22.4095
Au 17.2691 8.42061 23.1656
Pt 21.8368 9.18555 15.9701
Au 12.5889 16.7012 27.7892
Pt 11.1502 20.4769 20.48
Au 25.3735 17.3391 17.6496
Au 23.6918 21.9495 11.8429
Pt 10.1669 11.2295 13.3481
Au 20.2637 7.61233 7.43232
Pt 13.7439 17.465 25.2817
Au 9.9932 16.9607 26.7687
Pt 9.68769 9.67275 8.89243
Au 17.3811 27.397 18.9805
Pt 17.3758 12.4172 12.0204
Au 11.5405 4.44843 15.6267
Pt 17.5745 11.2805 17.7738
Au 13.4255 13.9183 18.9451
Pt 8.31959 19.0606 9.29625
Au 12.382 12.0314 27.0346
Pt 6.78007 18.9996 18.635
Au 18.7282 21.2031 26.5649
Pt 8.68635 9.54887 15.107
Au 18.0981 16.744 28.3848
Au 21.264 11.5426 3.9402
Pt 21.7327 19.1197 12.4858
Au 26.4036 15.0171 10.4327
Au 10.3604 4.63922 11.1831
Pt 13.9047 17.0187 13.7366
Au 21.7559 10.4297 22.6549
Pt 12.8906 19.6298 13.811
Au 24.0348 21.8993 14.7432
Pt 19.5637 7.90659 10.8426
Au 22.7592 20.2008 24.0552
Pt 12.6417 6.2061 11.4218
Au 10.7742 22.8124 10.6289
Au 15.9471 23.21 24.6449
Pt 12.3564 18.7405 6.10281
Pt 19.1665 24.1005 19.1506
Pt 19.4911 7.84037 15.4297
Pt 9.30469 20.1749 11.5457
Pt 23.5928 9.20886 14.0852
Pt 17.1356 8.88951 14.4522
Pt 14.4327 17.3684 7.28289
Pt 16.6375 10.3985 7.19359
Pt 21.6593 14.6 15.2545
Pt 10.6653 21.4195 17.8506
Pt 12.0155 11.4717 15.4863
Au 3.22597 11.8499 19.1778
Au 6.75735 8.83426 13.1575
Pt 13.0345 9.00955 16.8079
Au 7.9283 10.1246 21.437
Pt 11.5871 9.59794 6.90919
Au 7.26395 11.0359 16.891
Pt 14.0016 11.2757 20.7066
Au 20.9827 18.0383 5.94471
Pt 20.813 17.5473 19.3417
Au 13.18 5.72015 17.2755
Pt 15.5293 9.95626 18.8803
Au 9.48084 15.8395 3.01771
Pt 18.5581 7.02677 13.0735
Au 17.3002 20.5179 4.17378
Pt 13.1429 18.1516 11.4362
Au 5.45684 19.5163 14.1978
Pt 9.85783 11.6712 22.8473
Au 17.3737 24.6571 11.2164
Pt 11.5386 16.1887 14.658
Au 19.2316 14.2138 27.9987
Pt 14.2038 20.1082 20.5918
Pt 19.1838 9.79889 12.9356
Au 12.4031 4.14192 13.1447
Au 14.8349 26.5052 18.9705
Pt 21.2078 11.4998 11.1992
Au 5.42111 16.5239 18.1776
Pt 10.441 7.47032 10.6051
Au 13.8498 12.1919 3.84553
Pt 9.06048 15.7144 21.5327
Au 20.0071 7.9413 22.2561
Pt 15.604 25.4051 15.1205
Au 17.359 19.9052 10.7365
Pt 12.4654 8.43904 9.31869
Au 15.6433 10.4335 12.7509
Pt 9.38661 15.9281 12.7093
Au 8.49773 22.7524 12.1842
Pt 11.4924 16.4418 4.39381
Au 9.04667 5.03926 16.3907
Pt 6.88906 18.3025 16.0994
Au 19.7698 5.14605 14.6535
Pt 5.85804 13.0896 15.4364
Au 13.6603 13.9688 28.5917
Pt 21.1072 20.1464 19.9082
Pt 8.22265 14.2809 14.4646
Au 4.20466 15.2602 13.8424
Au 9.05837 9.50964 6.04237
Pt 18.1345 15.1417 12.1793
Au 18.3954 18.1416 3.55848
Pt 16.7093 23.1348 15.4936
Au 19.6756 12.8164 13.3676
Pt 20.527 15.1915 6.07462
Au 23.2243 17.476 23.5853
Pt 19.1855 19.231 17.9779
Au 18.4967 11.105 4.85128
Pt 8.68641 13.0866 21.0217
Au 16.3118 10.8305 9.89456
Pt 12.4476 19.9273 22.7986
Au 10.7097 24.2087 13.0988
Pt 21.629 21.5069 13.4774
Au 8.6862 5.99822 9.29354
Pt 12.9326 17.9301 16.064
Au 4.83005 13.2267 20.8528
Pt 6.93341 14.683 19.6942
Au 8.63603 20.5212 22.9802
Pt 10.5098 20.4719 9.17259
Pt 11.0037 13.6653 13.8884
Au 19.1958 5.85062 9.20439
Au 18.5823 22.048 6.18419
Pt 19.1326 24.1795 16.4926
Au 23.9078 8.49929 9.91106
Pt 15.244 18.9449 15.359
Au 15.0519 16.4168 28.917
Pt 18.3611 16.6124 19.0709
Au 5.48719 11.0616 12.0771
Pt 16.7393 20.1963 18.9899
Au 25.7271 10.4494 10.0139
Pt 18.492 19.3073 6.34162
Au 19.9827 20.156 4.31882
Pt 17.5892 15.5374 16.5769
Au 18.0159 12.5445 26.1962
Pt 15.5835 17.9622 19.8348
Au 10.6297 22.2477 22.6067
Pt 11.6859 13.8803 8.26825
Au 24.2506 15.4299 8.67844
Pt 14.3513 7.611 18.7147
Au 19.328 5.85912 17.3486
Pt 17.5398 20.4999 16.2316
Au 14.0244 6.8343 22.4698
Au 4.40841 18.5408 20.0139
Pt 20.1254 19.6851 24.7003
Au 17.3301 4.67313 13.2748
Pt 10.4236 17.8101 10.491
Au 8.71212 7.61138 17.4738
Pt 20.0007 16.0338 10.4223
Au 15.8556 27.5548 16.6706
Pt 14.8992 16.9699 9.76946
Au 12.4696 24.1706 8.84522
Pt 14.2298 15.02 26.3606
Au 14.8464 14.8584 2.94725
Pt 17.3526 6.22174 15.5479
Au 4.30787 13.177 10.8676
Pt 10.6276 13.0256 25.1454
Au 22.4656 12.8091 24.0254
Pt 21.4231 22.667 19.1547
Au 14.6554 19.826 4.03655
Au 14.824 23.0477 7.92308
Pt 12.219 16.7532 22.8081
Pt 17.2993 11.5837 14.6715
Pt 14.6647 7.83221 11.3186
Pt 7.96054 8.31243 10.5758
Pt 8.56573 16.4812 8.72537
Pt 5.29772 13.3103 18.0504
Pt 14.7598 23.9825 17.9143
Pt 14.0849 10.0996 7.50163
Pt 22.4335 10.4212 18.1839
Pt 15.8877 19.0156 24.8801
Pt 22.0409 20.6226 17.3562
Pt 10.9577 10.3219 11.0371
Pt 20.2409 12.8341 22.3373
Au 12.8903 3.78425 10.4342
Au 22.0201 23.5984 10.5167
Pt 19.304 14.6674 8.28208
Au 12.9847 22.595 24.2028
Pt 18.77 21.6294 20.0549
Au 5.14978 10.5037 20.6239
Pt 11.8408 15.4964 25.2562
Au 12.0291 14.1885 2.92973
Pt 14.6036 20.0046 6.90421
Au 8.07587 21.6635 18.8426
Pt 14.8176 20.6596 12.0944
Au 23.7515 21.2748 19.5291
Pt 21.0323 9.53298 9.2278
Au 6.21547 13.7943 12.715
Pt 20.7132 9.62755 20.2551
Au 15.8448 10.4393 4.64984
Pt 10.3773 21.1917 13.6129
Au 18.6483 23.2285 24.5228
Pt 12.4135 11.4025 22.9266
Au 5.21841 18.4075 11.7114
Pt 9.93895 17.4298 19.7164
Pt 12.0984 11.3505 8.93539
Au 25.5925 14.7343 18.4454
Au 21.9186 6.50088 16.3314
Pt 11.9468 15.7919 12.0025
Au 14.3981 18.9224 27.5656
Pt 7.49838 11.611 13.8586
Au 16.975 6.12045 10.726
Pt 24.1594 11.9334 14.029
Au 17.9512 4.68375 19.3598
Pt 13.3434 16.6042 18.3822
Au 19.9547 18.969 27.6517
Pt 15.5478 12.7524 6.26057
Au 9.75009 14.582 19.0093
Pt 6.47526 15.6198 15.898
Au 11.2968 12.5598 20.5173
Pt 12.8223 20.7843 16.1748
Au 10.7539 20.8749 24.9411
Pt 15.6959 6.95145 13.4757
Au 10.9056 10.385 25.2237
Pt 18.7368 18.8976 20.5297
Au 15.4599 8.08719 6.06147
Pt 9.33393 10.9433 19.1207
Pt 18.835 17.8527 15.7463
Au 25.2872 12.8756 8.62692
Au 6.39947 15.0539 22.4018
Pt 15.9073 15.4918 5.4474
Au 6.3235 13.256 6.59975
Pt 18.3141 18.1206 25.7744
Au 24.7446 19.5955 12.7821
Pt 11.9755 20.4135 11.3739
Au 23.3951 18.6067 18.9722
Pt 16.5439 14.2101 9.90219
Au 15.9735 13.285 16.8694
Pt 13.4733 13.6249 21.7658
Au 13.4624 26.1469 16.645
Pt 14.9521 21.1426 23.1316
Au 22.1287 21.8423 21.7563
Pt 16.6901 18.5659 8.29744
Au 19.5724 13.641 3.77312
Pt 8.5253 13.9824 23.595
Au 10.6257 23.1186 19.9839
Pt 17.777 12.4878 23.2254
Au 11.6406 5.62005 8.87677
Pt 6.64663 16.6753 13.5169
Pt 16.1098 22.3957 10.3225
Au 24.2506 6.79576 14.6112
Au 19.8693 23.6434 21.8572
Pt 8.98193 13.3165 12.0643
Au 23.6407 19.3486 21.5506
Pt 23.472 16.5561 15.8426
Au 20.9086 9.58079 5.6333
Pt 15.0923 12.0499 23.3325
Au 16.7603 16.8941 14.2395
Pt 21.2574 15.5239 12.5925
Au 5.13122 10.5176 14.9114
Pt 18.3935 16.6031 5.79448
Au 9.47633 8.96672 23.3621
Pt 7.89678 17.9223 11.6133
Au 16.4989 14.1052 14.2285
Pt 14.3199 19.2349 17.9764
Au 4.38393 15.9146 20.6522
Pt 12.6765 18.9562 8.84148
Au 26.1208 16.4864 13.0007
Pt 19.2336 10.391 7.4792
Au 17.5846 23.7597 8.38189
Pt 16.2634 18.2468 5.54373
Pt 13.9455 17.1224 4.70838
Au 7.13281 16.3399 24.767
Au 17.1011 19.2844 27.8402
Pt 9.41236 16.2157 6.15846
Au 26.1135 15.4228 15.6877
Pt 13.4203 14.4611 5.22997
Au 22.3297 13.8918 4.62336
Pt 7.04015 12.7584 10.163
Au 6.88687 21.835 14.1937
Pt 16.6769 19.8538 21.7279
Au 23.0238 19.4115 14.9758
Pt 16.5573 10.7517 21.4325
Au 19.9435 6.79038 19.8147
Pt 19.4663 10.4583 15.6335
Au 6.67986 12.172 22.6445
Pt 8.68102 19.5945 20.3832
Au 22.3327 5.06104 13.9448
Pt 14.7634 12.7009 11.6681
Au 14.9002 4.72965 14.9241
Pt 13.8073 10.3322 10.6009
Au 6.34325 21.0266 16.7193
Pt 10.1048 14.9672 10.1452
Pt 10.3808 9.78659 17.0711
Pt 15.0701 21.3594 14.4723
Pt 12.8276 11.2758 12.9632
Pt 10.666 19.2188 15.5287
Pt 15.5382 10.1993 16.2288
Pt 20.1014 11.4047 18.0823
Pt 3.982 14.8968 16.4501
Pt 12.8429 12.1836 6.40863
Au 11.9714 24.1234 17.7814
Pt 21.0954 18.7901 22.2858
Au 23.9577 12.1455 21.8998
Pt 20.6511 12.1669 8.71205
Au 8.32005 11.5866 24.9323
Pt 13.8155 11.7122 17.4759
Au 13.037 16.713 2.20604
Pt 19.1919 20.3743 8.61931
Au 22.7785 21.6765 8.61201
Pt 11.3488 18.3084 24.7128
Au 17.5065 25.034 22.8531
Pt 21.7947 12.0185 15.7903
Au 10.1798 7.37817 7.48482
Pt 17.2275 22.2014 12.7688
Au 23.6387 19.7708 10.2609
Pt 13.6752 14.5195 10.259
Au 8.15046 21.7597 9.58203
Pt 20.2504 15.7965 17.2098
Pt 11.7518 19.1134 18.2833
Pt 16.8853 15.8955 7.92344
Au 5.72163 14.6727 8.85781
Au 23.1329 16.1759 6.00984
Pt 16.0372 14.2425 22.1269
Au 22.8971 11.504 6.33905
Pt 19.079 22.2715 14.6561
Au 7.84125 14.5257 4.73137
Pt 16.5051 16.5721 24.0261
Au 15.6791 22.0396 5.58753
Pt 14.2989 16.0148 21.0087
Au 15.9368 15.4023 18.8445
Pt 21.4705 22.73 15.7715
Au 13.303 24.5357 20.1492
Pt 15.8236 8.18488 20.8601
Au 15.4608 15.5073 12.0419
Pt 24.5557 12.8095 11.2131
Au 26.4643 13.7848 13.0327
Pt 11.1788 22.7266 15.5075
Au 12.5342 21.596 7.93821
Pt 12.7707 14.0934 16.1596
Au 15.4391 5.47721 20.3195
Pt 11.1009 12.5914 17.7669
Pt 17.5619 8.76243 17.0562
Au 7.53983 8.33473 7.94888
Au 15.0063 24.8795 9.94417
Pt 9.64631 12.3453 9.64829
Au 7.83182 18.6509 6.73905
Pt 15.3857 8.37568 8.89299
Au 13.0885 25.5635 13.9904
Pt 15.01 23.5745 12.7993
Au 14.8333 15.865 16.1181
Pt 11.3516 9.07088 14.6311
Au 2.89541 17.0385 17.9789
Pt 10.7794 9.83427 21.1439
Au 25.4392 8.45056 12.3354
Pt 18.7756 22.2797 10.4168
Au 19.9343 11.2889 24.6387
Pt 22.8788 15.9741 18.3188
Au 11.1153 14.3767 27.5688
Pt 7.49912 15.3513 10.8822
Au 8.27303 11.9227 5.22215
Pt 18.2463 14.3777 20.9145
Au 22.8557 9.02815 7.47271
Pt 10.4076 18.0899 7.72633
Pt 21.7804 8.84864 11.6415
Au 6.42567 8.47938 16.177
Au 25.9987 9.60408 15.0218
Pt 22.3029 13.8049 7.57062
Au 9.59735 13.1368 3.17437
Pt 18.7642 11.8484 20.2901
Au 21.0692 22.3002 24.2381
Pt 20.6899 14.7785 20.0177
Au 23.7932 18.0308 8.04585
Pt 16.6867 17.9636 17.3531
Au 16.0545 12.7775 19.6854
Pt 6.95446 11.954 19.4739
Au 5.35749 21.0853 19.286
Pt 19.3764 20.5754 12.5324
Au 6.99817 9.18365 18.9671
Pt 7.83628 13.664 17.3274
Au 10.8746 25.364 15.6279
Pt 17.0543 7.03849 18.7353
Au 25.5352 18.1898 15.0605
Pt 16.9947 25.2599 17.5051
Au 15.3723 26.1248 12.492
Pt 11.6936 15.4694 20.4975
Au 23.9817 15.2919 11.5082
Pt 9.46166 8.69779 12.7382
Au 26.2752 12.526 15.4766
Au 19.6958 24.8198 9.93821
Pt 21.459 19.0954 8.56683
Au 20.3702 13.9127 25.3825
Pt 9.69914 16.3343 24.0308
Au 9.83426 18.578 4.74359
Pt 22.0589 14.0232 10.168
Au 19.1555 13.1843 16.0084
Pt 17.2568 22.7071 18.1249
Au 15.1288 12.2547 26.6454
Pt 13.7546 23.4478 15.5394
Au 4.29896 17.3908 15.4475
Pt 11.1299 14.2248 22.8605
Au 13.1187 7.26841 7.05075
Pt 10.7787 6.52516 13.3839
Pt 21.1786 21.0919 10.6447
Pt 8.25144 10.7585 11.3709
Pt 12.2034 10.4329 18.9858
Au 16.6525 24.8753 20.2532
Pt 12.7301 22.3813 13.187
Au 6.68018 20.6419 11.7886
Pt 18.6241 13.8428 18.4437
Au 6.66587 16.0897 6.74247
Pt 10.0919 14.6549 16.2767
Au 24.5334 13.8309 6.24431
Pt 8.22526 19.3295 13.9705
Au 11.6989 19.2279 27.1133
Pt 9.11498 19.113 17.6116
Pt 15.7469 18.2218 12.087
Pt 24.1164 14.6512 14.0803
Au 7.56878 17.1951 4.40189
Pt 18.857 10.7073 10.3799
Au 25.2117 17.5737 10.6207
Pt 20.2929 12.5312 6.22043
Au 21.5071 20.9157 26.5222
Pt 9.41576 12.1222 15.754
Au 23.4576 9.81921 20.5333
Pt 17.7508 12.5388 8.29283
Au 2.99989 14.4678 18.8493
Pt 21.1842 17.3203 14.5048
Au 8.23927 6.14447 12.074
Pt 14.5512 12.4411 8.75976
Au 4.8246 10.3546 17.7474
Pt 17.2668 22.5071 22.1588
Au 24.6935 20.1373 17.0104
Pt 19.2607 15.4478 14.4893
Au 25.835 13.9049 20.9669
Pt 14.5305 12.169 14.77
Pt 18.2238 15.4891 25.9001
Pt 17.0149 16.7479 21.51
Au 9.11839 7.90729 20.1727
Au 18.133 8.44683 5.91629
Pt 18.0294 8.52812 8.84724
Au 26.3768 11.0225 12.7403
Pt 21.5842 16.3156 8.23141
Au 21.4324 25.1586 20.0772
Pt 17.3181 19.6334 13.7721
Au 24.1841 14.9456 22.8512
Pt 17.5347 17.0407 10.4131
Au 20.5589 5.5812 11.8501
Pt 10.9747 7.04613 16.1765
Au 8.73528 14.5991 26.1636
Pt 22.4942 16.7411 21.103
Au 9.26356 23.7059 17.4202
Pt 16.215 14.0264 24.8851
Au 24.442 12.1005 18.999
Pt 7.03558 17.1756 20.4084
Au 16.8822 6.41457 7.76005
Pt 22.286 13.1831 12.8471
Au 21.7098 24.8288 17.3804
Pt 21.4932 10.6344 13.6733
Au 10.2055 20.5647 6.53453
Pt 24.1755 10.9548 16.4059
Au 20.0471 23.604 12.4398
Au 12.7236 21.2477 5.25732
Pt 19.0991 17.7512 12.8961
Au 22.6429 23.9474 13.4495
Pt 18.3622 18.3775 23.1717
Au 20.3537 22.869 8.24673
Pt 20.2677 19.957 15.2003
Au 19.0147 26.1735 20.8245
Pt 16.7957 21.1605 7.99281
Au 14.8768 4.79978 12.0234
Pt 10.8076 16.8563 17.2951
Au 22.1518 18.2914 25.9957
Pt 10.1963 11.8529 7.0724
Au 23.9929 13.7016 16.6074
Au 10.5458 5.53792 18.5123
Pt 16.0565 16.9236 26.6048
Au 11.1022 7.08962 21.7968
Au 17.9488 24.9095 13.8215
Pt 19.6483 21.7304 17.4353
Au 3.37067 12.2879 16.4176
Pt 19.3501 13.4451 10.6158
Au 6.30698 19.8576 21.511
