561
Atoms. Timestep: 20597
Pt 12.3269 15.5512 15.7818
Au 5.69804 17.3933 21.8676
Pt 10.5158 22.1373 19.6227
Au 14.3712 20.1894 6.41819
Pt 12.5985 18.2915 22.5576
Pt 9.70908 22.9562 12.4943
Au 4.66638 14.6842 10.2541
Pt 18.7602 6.96099 13.5428
Au 4.89281 8.14754 9.91232
Pt 14.9498 5.69323 18.4649
Au 10.5526 21.3172 6.19658
Pt 21.3906 17.3944 11.9765
Au 14.9398 13.9559 3.18516
Pt 11.9575 16.0986 18.4704
Pt 22.2834 18.6281 7.6871
Au 26.2536 17.6389 21.0531
Au 23.4756 6.89591 16.8862
Pt 17.316 18.7115 12.4577
Au 13.4365 4.07294 16.9672
Pt 14.0079 16.968 24.3193
Au 18.7795 15.2613 25.993
Pt 6.12353 13.6729 12.8046
Au 9.27879 19.4921 24.6057
Pt 7.34614 17.8633 18.3832
Au 13.7889 9.73042 25.952
Pt 23.2659 19.6511 18.0338
Au 7.51773 14.7686 25.5332
Au 19.1492 7.24535 10.5742
Pt 14.8928 20.124 9.54395
Au 10.2044 24.9005 14.6628
Pt 11.1993 21.8489 10.4863
Au 9.99955 12.5919 5.52607
Pt 13.4453 17.6815 20.0629
Au 25.7651 8.3493 12.2273
Au 10.4067 11.7934 19.0196
Pt 11.6555 15.899 24.1239
Pt 18.6398 18.1438 20.2227
Pt 21.1285 14.2471 6.48254
Pt 20.3068 16.973 6.67712
Pt 11.828 19.8419 19.6216
Pt 9.07589 19.7251 19.8788
Pt 5.86736 18.4483 13.5689
Au 13.2245 15.9197 3.85931
Pt 22.4221 19.7397 10.3665
Au 7.72589 19.5665 22.4623
Pt 6.71408 11.1447 16.3507
Au 20.4982 10.7145 24.6709
Pt 18.198 11.3365 23.2677
Au 10.1573 5.82614 21.0985
Pt 8.75834 17.833 13.503
Au 14.997 7.23817 22.8147
Pt 14.6774 23.6047 16.827
Au 3.64098 12.6642 17.0852
Pt 16.0932 12.7282 24.3663
Au 16.4406 21.1145 24.0494
Pt 21.0301 9.11691 20.2647
Pt 18.2891 13.0896 21.2069
Pt 10.34 20.0434 8.62644
Au 26.8163 18.2845 18.4502
Au 16.8154 2.74482 12.6468
Pt 8.42579 18.429 8.95585
Au 24.7495 20.8788 12.8353
Pt 9.43348 22.8138 17.2602
Au 7.99552 7.05796 13.7655
Pt 5.76876 13.4618 15.4844
Au 12.7952 13.4723 6.30172
Pt 21.6501 18.4254 20.2226
Au 6.3194 19.6296 7.88917
Pt 16.4403 21.3728 16.0982
Au 13.6508 22.8323 10.157
Pt 18.5882 18.9815 7.06533
Au 22.5569 21.1846 20.3352
Pt 11.2528 8.3027 21.4174
Au 8.69853 19.4027 6.33342
Pt 15.9424 11.5263 21.8373
Au 24.2697 22.1969 18.2364
Pt 11.3469 5.82252 16.5523
Au 16.3996 25.7659 21.1123
Pt 21.2217 8.96395 17.3475
Pt 21.0938 10.2922 14.7943
Au 16.7451 4.44394 10.6079
Au 3.56406 14.774 12.8618
Pt 15.2299 19.8596 14.0566
Au 11.2221 13.9422 25.8581
Pt 14.3678 9.27748 15.9448
Au 20.918 13.4403 25.0221
Pt 19.8278 16.5707 18.5215
Au 20.7883 6.83977 21.7876
Pt 17.6436 21.0296 13.8522
Au 20.1137 24.5545 12.5837
Pt 20.7251 20.1395 6.2088
Au 17.8843 25.7518 13.9134
Pt 20.8735 13.952 22.3921
Au 7.49872 11.8901 6.79232
Pt 20.3155 19.5476 18.3438
Au 24.9279 7.22563 14.5161
Pt 14.1262 9.60859 21.2959
Au 18.8518 4.61246 12.2879
Pt 12.7387 18.5158 17.3988
Au 17.0028 3.84899 19.7343
Pt 21.98 15.2382 10.4504
Au 4.6804 14.9037 21.2131
Au 21.7622 18.1616 4.71371
Pt 14.545 15.3365 10.8717
Au 18.9639 24.3088 9.94277
Pt 17.506 15.4892 20.0008
Au 13.2707 6.9999 24.9049
Pt 12.2475 10.269 14.562
Au 20.9174 25.469 20.7857
Pt 16.0677 17.8566 19.6372
Au 11.6137 11.2756 25.2702
Pt 23.446 11.4314 14.0245
Au 14.7795 11.941 5.04824
Pt 18.9154 14.3377 17.4098
Au 20.6651 16.0462 24.1128
Pt 13.0276 20.7944 21.8603
Au 5.78259 7.96041 12.4224
Pt 22.4864 16.4822 21.8833
Au 12.4013 13.1696 3.74446
Au 4.21244 12.2942 11.4879
Pt 22.7545 13.4929 20.6746
Au 24.1741 9.11923 10.2307
Au 6.76985 12.981 23.6083
Pt 8.6927 21.0666 10.4778
Au 8.83352 6.89526 16.5712
Pt 13.8865 14.3417 24.0323
Au 4.68157 19.2968 10.0682
Pt 15.3399 16.7552 22.0331
Au 12.1612 5.52156 11.8206
Pt 8.19708 17.3546 20.9454
Au 20.8003 22.8436 22.4869
Au 9.38673 25.4998 12.0449
Pt 23.5203 17.4333 9.91618
Pt 23.7991 18.3446 12.4058
Pt 24.5328 16.6986 14.3647
Pt 13.5074 11.0572 7.51856
Pt 15.8526 12.9939 19.7356
Pt 15.6399 10.0302 23.9734
Pt 22.0713 20.1511 13.1428
Pt 12.6746 15.7106 21.7412
Pt 19.9192 23.7447 17.2891
Pt 14.2893 9.32627 18.5131
Pt 17.6923 19.4601 17.7868
Au 14.3789 15.3557 26.5883
Au 8.28083 21.7123 7.89663
Pt 18.3735 11.1053 14.1134
Au 10.8251 23.1974 8.08244
Pt 17.4542 14.034 8.69321
Au 16.9751 8.91163 22.0347
Pt 13.7055 17.7317 8.72321
Au 14.8614 5.07596 21.0324
Pt 8.19369 20.5936 12.9479
Au 12.4253 20.487 4.55908
Pt 10.8575 7.21586 18.8472
Au 21.8327 10.4461 8.7096
Pt 22.452 11.2143 16.928
Au 19.255 9.42994 8.02562
Pt 12.4895 11.1513 17.1113
Au 16.1571 10.9866 26.4788
Pt 13.307 7.28788 20.1355
Au 17.526 5.86822 21.5165
Pt 15.8583 21.9205 18.5602
Au 13.1143 24.6558 14.9538
Pt 15.1396 14.8489 5.6657
Pt 11.8164 9.5624 19.1871
Au 19.5701 12.8669 4.73308
Au 17.0192 8.34197 6.858
Pt 18.6417 10.5235 20.6268
Au 7.09147 23.1568 11.9884
Pt 17.2657 12.8686 15.878
Au 23.4826 8.006 21.0969
Pt 18.7694 7.79826 20.1117
Au 4.30886 17.0708 11.6101
Pt 10.0442 15.2124 21.3212
Au 10.5687 25.5503 17.371
Pt 23.9968 12.1126 18.8102
Au 9.53347 16.7307 25.7064
Pt 18.1089 16.7494 8.48988
Au 16.6612 6.95772 11.6039
Pt 14.9514 22.4646 7.87316
Au 16.4457 23.1605 9.91311
Pt 16.103 17.356 10.2676
Au 18.475 21.3502 5.54119
Pt 10.6844 16.0062 13.3887
Au 6.0204 8.54506 15.0316
Pt 18.7878 9.5157 18.1394
Pt 20.1384 13.8685 19.7081
Au 21.3212 22.6129 14.9902
Au 25.4764 17.0239 8.23475
Pt 19.5183 12.3973 7.64874
Au 22.7772 11.8392 23.5892
Pt 13.8045 13.2686 21.5774
Au 22.7064 24.1569 16.7634
Pt 20.2368 20.1252 8.79205
Au 9.6671 4.93161 18.477
Pt 12.4558 16.2582 6.48056
Au 16.3375 23.8417 23.0884
Pt 19.6583 19.2331 13.9209
Au 16.5145 19.3715 4.90663
Pt 20.4782 12.5321 10.1953
Au 8.01278 24.8868 16.5956
Pt 16.2393 20.9782 11.5974
Au 16.9007 6.58536 8.88233
Pt 19.7888 14.6308 11.7596
Au 4.64387 17.5061 16.5496
Pt 17.736 11.5172 9.34904
Au 9.5186 19.9557 15.1374
Pt 10.8794 13.8454 17.407
Pt 17.9646 16.5955 22.711
Au 6.21822 21.5364 9.86531
Au 15.8104 25.3945 8.65034
Pt 10.9502 17.2853 8.85909
Au 16.3046 3.83407 17.1018
Pt 18.5155 14.0649 23.6448
Au 3.75955 9.67212 11.9686
Pt 24.6505 17.3506 17.08
Au 11.9152 26.8951 15.4464
Pt 13.5844 20.8825 12.1352
Au 22.1098 9.11733 23.0863
Pt 21.7149 13.1165 15.1524
Au 23.2844 14.5364 23.5354
Pt 17.2521 16.8687 5.84659
Au 7.0325 17.1787 6.72819
Pt 12.1796 16.5734 11.017
Au 25.6251 10.4636 20.1372
Pt 15.1476 11.8231 17.3282
Au 20.0076 21.8852 12.7276
Pt 19.9668 16.0427 21.1854
Au 15.7836 7.91249 25.4546
Pt 20.0799 23.0247 20.0046
Au 16.5412 13.8366 26.8085
Au 6.34213 12.3445 20.9284
Pt 14.3714 6.6341 12.9652
Au 24.7854 16.8305 23.2522
Pt 19.7147 11.6928 16.5162
Au 25.7737 9.88711 14.4651
Pt 13.532 13.8531 17.7172
Au 12.0475 8.79846 7.15032
Pt 7.98355 12.2446 14.3081
Au 13.9261 22.5739 23.7238
Pt 16.1215 16.411 13.2066
Au 22.8979 5.51618 14.4839
Pt 7.75458 11.2904 18.7312
Au 18.7619 24.7214 22.0935
Pt 8.32344 13.5112 16.8228
Au 5.75278 22.986 14.4289
Pt 8.59881 10.6511 9.2226
Au 23.3919 20.092 5.74684
Au 10.3778 5.83528 14.0608
Pt 7.10824 18.9107 11.2465
Pt 10.2935 8.55566 13.8485
Pt 15.5585 15.8752 8.04998
Pt 10.7034 14.5705 10.0575
Pt 13.6709 21.1433 17.1697
Pt 9.27461 12.5118 21.8931
Pt 22.3013 13.2758 8.5827
Pt 13.023 12.7997 9.96094
Pt 17.3051 16.8823 17.5487
Pt 20.653 11.448 21.9331
Pt 6.67926 15.6334 16.9085
Pt 5.48064 15.9689 14.4584
Pt 11.4854 13.3248 23.1336
Au 17.4429 23.69 7.2226
Au 25.5446 19.334 10.6124
Pt 11.2652 22.4032 15.0196
Au 4.20336 10.323 15.9126
Pt 7.92668 11.9644 11.49
Au 6.05508 12.331 9.15279
Pt 9.99914 18.2322 17.7553
Au 6.40045 9.64615 8.21423
Pt 10.784 17.5653 20.4009
Au 7.65929 22.1043 19.4725
Pt 16.1084 18.5735 7.75976
Au 13.9188 24.451 21.7557
Pt 9.18366 16.4977 11.0751
Au 5.49956 15.3448 23.7698
Pt 13.6437 11.6449 23.5955
Au 16.3692 26.3977 18.4819
Pt 12.1874 9.95663 9.677
Au 18.5393 12.2959 25.8365
Pt 15.0222 23.3884 12.3603
Au 18.5234 26.1963 16.6446
Pt 21.8031 13.6849 17.7372
Pt 14.5747 15.304 19.8395
Au 10.6801 7.19861 23.7659
Au 14.289 18.1588 26.6176
Pt 9.28764 14.7901 23.7271
Au 15.0496 24.5654 6.19315
Pt 18.8276 17.0823 11.1042
Au 8.2115 14.6415 6.0425
Pt 7.94026 9.67071 12.9386
Au 4.12228 15.2144 18.2909
Pt 11.7721 13.8074 20.0077
Au 21.1826 6.25295 12.4454
Pt 14.9719 13.2375 7.94503
Au 3.18999 17.3302 14.1672
Pt 13.239 7.28433 17.4006
Au 5.63173 10.9489 13.6051
Pt 14.81 10.7826 9.74249
Au 26.6946 15.7055 18.8879
Pt 9.8297 17.0478 6.48274
Au 26.2364 16.6502 10.8538
Pt 21.7838 15.0987 13.3891
Au 24.1128 14.329 6.5754
Pt 10.2321 11.3624 13.3012
Pt 21.2698 7.5145 15.0198
Au 23.8279 6.52484 11.9495
Au 3.33314 14.9735 15.6639
Pt 9.1353 14.0362 12.3429
Au 19.8671 15.8256 4.25523
Pt 9.95857 11.4248 16.2514
Au 23.8927 18.9782 21.8657
Pt 13.4889 11.6712 19.5571
Au 9.81487 6.87732 11.5002
Pt 21.9976 17.5143 17.3384
Au 24.0823 17.4216 6.03007
Pt 20.6508 17.5387 9.36173
Au 5.47014 19.9056 17.5961
Pt 17.5424 6.06383 18.5606
Au 13.1854 24.6601 8.16193
Pt 16.9874 10.2696 16.3343
Au 21.5987 5.03817 17.0485
Pt 17.2904 23.3904 20.1977
Au 12.0923 10.834 5.25824
Pt 12.8208 11.0185 12.0305
Au 26.7011 15.512 13.3927
Pt 9.97322 18.909 11.2421
Pt 12.3943 19.3193 10.3329
Au 22.521 18.037 24.1315
Au 10.6592 15.1593 4.6368
Pt 14.2838 13.1936 12.6621
Au 26.3419 12.5808 14.4353
Pt 18.3249 12.3769 11.7577
Au 24.2703 19.2341 15.0392
Pt 22.2845 10.6584 11.3781
Au 7.48356 17.1363 23.9391
Pt 16.0077 10.991 12.0951
Au 13.8941 12.6276 26.2088
Pt 14.1921 17.5592 14.9248
Au 21.2749 22.4623 10.2487
Pt 24.2092 14.0344 13.9126
Au 9.84743 8.32448 8.77459
Pt 22.5357 16.0027 7.87862
Au 23.8314 21.8284 15.5375
Pt 17.1223 18.286 15.1169
Au 24.8785 15.2086 21.0929
Pt 19.9416 14.8966 8.92335
Au 12.0132 16.4361 26.787
Pt 12.6636 21.138 8.26688
Pt 19.2651 20.9175 16.0211
Au 12.9711 22.7684 6.04057
Au 23.1297 8.77092 13.0548
Pt 16.2218 14.4935 17.6846
Au 12.1718 7.2219 9.5829
Pt 16.1567 10.72 7.44589
Au 9.12785 24.4105 19.3875
Pt 7.40906 14.9133 21.9137
Au 11.4777 21.2096 24.133
Pt 12.2163 8.2867 12.1266
Au 25.2613 20.0589 19.785
Pt 17.7818 19.2859 9.78328
Au 15.722 26.0828 15.9164
Pt 10.9942 20.7128 12.8899
Au 22.5695 15.5941 4.71831
Pt 10.2988 13.7217 14.7742
Au 3.90305 12.8438 19.7701
Pt 11.1556 17.8566 15.3295
Au 8.9638 21.9965 21.8568
Pt 15.2347 19.3509 22.054
Au 11.9093 24.7749 19.7589
Pt 8.18064 20.2876 17.4499
Pt 16.7327 13.6952 13.368
Pt 14.5125 8.51307 10.888
Pt 23.4393 9.1972 15.6654
Pt 16.3218 15.4793 24.5277
Pt 14.9061 24.3265 19.3278
Pt 24.1181 17.4553 19.582
Pt 14.473 9.3062 13.3555
Pt 21.5541 21.8241 17.8011
Au 6.63274 20.5123 15.1692
Pt 10.6459 14.563 7.38626
Au 11.7157 18.5739 25.199
Pt 16.5311 5.25485 13.6303
Au 15.8878 22.1493 5.34009
Pt 17.1675 20.3917 20.2752
Au 21.0417 10.9338 6.09757
Pt 15.2926 19.0175 16.9506
Au 22.5082 21.4851 7.94992
Pt 8.77523 13.1692 8.67194
Au 21.7336 8.0821 10.4288
Pt 21.7029 19.9044 15.8377
Au 21.9189 20.4454 22.9385
Pt 10.48 12.0312 10.648
Au 19.7368 5.16262 19.8381
Pt 19.2236 16.6057 13.6821
Au 11.3981 24.6663 10.405
Pt 6.84992 16.2731 12.2759
Pt 17.2966 15.0543 11.1299
Pt 11.7425 11.1515 21.5731
Au 12.8384 12.8881 15.0324
Au 24.927 12.5603 22.1133
Pt 19.7123 6.90511 17.4247
Au 13.4001 25.9134 17.5938
Pt 17.8101 9.23282 12.4358
Au 15.9021 16.6833 3.54435
Pt 24.3052 12.9082 16.2542
Au 12.7321 9.1111 23.5187
Pt 24.0531 15.7255 11.9475
Au 8.82324 23.6946 9.9176
Pt 13.4035 15.7175 13.2535
Au 23.6162 9.15169 18.6311
Pt 6.07185 13.3026 18.219
Au 19.0569 4.05892 17.4063
Pt 20.5273 15.5784 15.8949
Au 14.0525 25.4896 10.7902
Pt 8.52267 9.41428 15.5355
Au 6.32762 16.8921 9.66149
Pt 13.01 15.0941 8.72944
Au 24.6393 19.6972 8.16027
Pt 19.9408 19.5796 11.3716
Pt 7.93336 15.1124 14.4473
Au 16.8302 25.5753 11.3038
Au 3.37925 19.4136 12.4935
Pt 16.181 23.7267 14.6562
Au 6.1181 14.7459 7.8224
Pt 11.9894 18.892 6.88557
Au 25.1697 11.0195 12.0457
Pt 18.6972 23.3548 14.9751
Au 14.0296 18.6343 3.63888
Pt 12.0689 18.323 12.943
Au 8.42371 22.635 14.8293
Pt 18.929 8.73353 15.5202
Au 6.35477 19.7235 20.1681
Pt 10.01 9.54928 11.264
Au 19.8216 22.5323 7.74754
Pt 12.0943 23.3647 17.4009
Au 26.7326 12.8684 17.336
Pt 10.5269 19.8845 22.0556
Au 11.5178 23.0467 22.0074
Pt 15.2737 11.5783 14.612
Au 9.60556 10.1033 6.69171
Pt 14.5636 17.503 5.93816
Pt 17.8634 19.2796 22.5212
Au 14.9603 25.9772 13.3243
Au 14.4715 5.87894 10.0927
Pt 16.1669 14.3123 22.154
Au 12.5853 5.9346 22.3684
Pt 9.96488 17.4676 22.979
Au 17.971 3.35047 14.947
Pt 18.6363 21.6934 10.2797
Au 10.0469 9.93007 23.4811
Pt 6.17233 10.2868 10.9232
Au 24.7267 9.89881 22.6991
Pt 9.52374 16.04 16.1908
Au 24.069 21.7178 10.2992
Pt 14.4552 18.2632 11.9494
Au 22.7024 22.732 12.5776
Pt 9.35863 10.0267 20.7234
Au 25.4581 10.4982 17.0975
Pt 18.0418 12.1702 18.5161
Au 4.06684 19.8303 15.0712
Pt 14.5019 16.5129 17.4239
Au 15.1069 3.25204 14.7609
Pt 11.082 11.9056 8.02835
Au 25.8402 13.6198 11.6304
Pt 18.7233 25.2884 19.2519
Au 26.2758 13.155 19.8992
Au 23.0278 10.7866 20.9114
Pt 19.908 20.4929 20.9041
Au 5.04165 10.6846 18.5813
Pt 12.3331 23.2856 12.6534
Au 24.3375 11.8226 9.56835
Pt 20.7579 12.1051 12.861
Au 21.0657 25.9531 18.0761
Pt 11.7776 13.658 12.3944
Au 18.0918 9.4554 25.2206
Pt 14.4819 19.9719 19.4967
Au 12.322 4.9101 19.3674
Pt 15.3413 22.0258 21.3881
Au 5.4891 20.979 12.5013
Pt 13.1857 22.36 19.6794
Pt 20.4108 8.95936 12.7551
Pt 17.2302 23.936 17.3277
Pt 8.61356 15.8166 8.53245
Au 12.0717 25.9989 12.7827
Pt 17.0294 12.8683 6.20777
Au 6.7448 9.34718 20.3816
Pt 11.1226 8.7292 16.4992
Au 4.75285 17.6533 19.3296
Pt 19.4975 8.97793 22.6967
Au 17.4365 14.4973 4.02659
Pt 9.23715 15.8731 18.7555
Au 7.5248 10.5286 22.7432
Pt 19.2772 13.7916 14.3195
Pt 8.47515 13.6243 19.6557
Pt 20.325 18.2974 22.5803
Au 26.1108 15.1482 16.0859
Pt 14.944 6.07369 15.7047
Au 6.58986 22.5732 17.0336
Pt 14.0552 22.1439 14.5728
Au 24.6068 14.6662 9.36626
Pt 15.9205 7.62181 20.0233
Au 26.387 18.3705 13.0702
Pt 19.606 10.0937 10.5784
Au 14.5359 9.30338 5.72587
Pt 6.59644 15.6125 19.5555
Au 14.4722 4.00581 12.1518
Pt 15.8131 13.0346 10.5042
Au 25.7727 20.2429 17.0048
Pt 17.491 15.5574 15.3359
Au 13.9845 19.9317 24.5167
Pt 22.1623 15.7423 19.3796
Au 20.6405 25.3477 15.1795
Pt 14.927 14.6518 15.2749
Pt 18.6099 14.8486 6.49791
Pt 7.33817 14.4135 10.4525
Au 4.60677 17.4784 7.90447
Au 11.0098 20.7262 17.257
Pt 17.7324 6.02976 15.8858
Au 20.1462 4.96148 14.809
Pt 17.7014 23.2759 12.3871
Au 23.5437 11.6747 6.8946
Pt 18.1905 22.0287 22.208
Au 26.8104 17.8389 15.6741
Pt 12.6432 19.983 14.9556
Au 11.4004 17.9433 4.4412
Pt 12.6438 7.44639 14.7221
Au 12.8238 4.6691 14.3815
Pt 24.3598 14.7169 18.3536
Au 4.00816 10.559 9.35905
Pt 16.9847 9.09476 9.79297
Au 21.879 6.78808 19.1757
Pt 7.41402 17.9332 15.7704
Au 6.65881 8.6222 17.6626
Pt 9.24572 9.28396 18.1736
Au 3.50194 12.4762 14.281
Pt 18.5849 21.7768 18.415
Au 8.20763 7.10605 19.4945
Pt 17.1856 21.0967 7.91314
Au 7.53265 25.0181 13.9263
Au 14.5932 8.25192 8.23437
Pt 19.5115 18.0153 16.2328
Au 22.4389 12.8563 4.74752
Pt 23.112 15.377 16.0677
Au 8.55062 7.8939 22.1186
Pt 20.8891 11.4006 19.0636
Au 9.13827 12.3051 24.7128
Pt 23.0286 13.1419 11.6467
Au 16.7261 16.941 26.6699
Pt 16.4397 8.04756 14.5094
Au 7.65041 8.12902 10.3925
Pt 16.4111 10.2318 19.3881
Au 22.5467 23.9005 19.452
Au 17.8712 7.11971 23.8659
Pt 21.9204 17.5836 14.5452
Au 18.2822 10.5728 5.72014
Au 19.0777 18.5271 4.45187
Pt 16.3698 7.96292 17.319
Au 18.8407 17.9941 24.9809
Pt 16.2492 18.2779 24.3323
Au 19.4976 20.641 24.1058
