561
Atoms. Timestep: 20686
Pt 21.728 8.44178 17.9591
Au 24.1077 21.8786 12.1725
Pt 22.1216 20.1984 12.673
Au 19.3858 6.6894 21.6346
Pt 15.9328 12.4594 24.329
Pt 20.4096 25.2766 17.7337
Au 7.02021 10.3496 7.90778
Pt 15.2416 6.55344 16.9029
Au 7.28908 6.61435 11.252
Pt 16.9082 9.78236 11.4552
Au 24.609 19.2499 11.3568
Pt 17.3698 17.021 24.6469
Au 11.1664 6.04669 10.4872
Pt 21.8852 12.0983 10.3918
Pt 14.1443 20.4101 10.4022
Au 22.2357 16.211 25.4835
Au 14.3433 11.611 4.12122
Pt 8.75348 14.2274 11.3084
Au 4.27522 14.6087 9.91093
Pt 20.2115 18.3109 17.1118
Au 23.6234 19.18 23.6539
Pt 10.7451 23.3145 13.6113
Au 3.71849 14.3345 15.1248
Pt 9.83268 23.139 18.1941
Au 13.4498 12.0587 25.682
Pt 18.89 11.5751 10.9672
Au 5.20272 17.2052 16.7203
Au 22.9186 14.5777 11.1897
Pt 10.1051 12.5449 13.2418
Au 21.6071 19.2992 8.06375
Pt 13.5525 13.3433 23.2618
Au 10.6996 8.51676 5.4682
Pt 12.2027 22.7845 17.3864
Au 24.3492 7.51856 17.2295
Au 15.9209 3.24962 14.9264
Pt 15.0446 18.4862 18.873
Pt 9.11175 8.15788 12.6647
Pt 22.2663 18.105 10.5386
Pt 20.8602 24.426 20.263
Pt 9.12025 19.1789 19.609
Pt 11.3511 16.2022 20.2804
Pt 16.5476 12.4087 12.2489
Au 7.89373 6.06077 13.9294
Pt 8.21267 16.5804 12.888
Au 7.98184 16.9384 24.3304
Pt 19.8215 23.0024 16.6936
Au 26.4324 15.9879 17.3297
Pt 19.5637 6.52049 13.7043
Au 16.4039 7.43223 7.40924
Pt 18.3215 14.2973 12.6766
Au 19.7334 17.0401 26.4711
Pt 9.84962 10.4422 11.3087
Au 9.08186 10.6892 5.90298
Pt 15.6054 13.0606 6.44549
Au 5.97837 7.2409 15.5039
Pt 21.0477 10.8538 12.706
Pt 23.2683 9.95452 11.4769
Pt 10.5105 17.5527 17.8967
Au 21.022 22.0386 8.37695
Au 15.8115 8.7168 21.8981
Pt 18.0219 16.6909 11.7639
Au 6.10963 22.9998 14.2529
Pt 17.2809 22.9284 16.9221
Au 12.9553 6.16025 18.4979
Pt 18.7524 20.5473 17.1289
Au 24.8306 14.2657 21.5152
Pt 19.9523 19.7391 14.6554
Au 11.6278 10.9668 4.5879
Pt 16.2794 20.8205 12.2336
Au 18.453 21.117 8.16118
Pt 12.8466 6.9812 15.3841
Au 15.0937 16.5942 26.6297
Pt 12.1765 14.1103 8.47909
Au 12.3128 6.38052 5.61494
Pt 9.1982 14.1932 20.6346
Au 26.6575 15.4116 14.7265
Pt 25.0551 9.02862 15.2544
Au 23.8024 23.2863 20.0827
Pt 18.7116 18.5537 7.58505
Pt 8.04648 9.04386 15.3797
Au 21.8655 10.864 23.9831
Au 14.0409 25.3122 9.97328
Pt 18.5635 15.3108 19.4922
Au 24.5531 11.9192 15.1906
Pt 23.0225 9.97013 14.0767
Au 21.0465 8.48883 22.7858
Pt 8.55222 21.9687 13.6222
Au 18.7304 6.53513 8.51773
Pt 19.9618 16.8998 14.3976
Au 11.7787 16.0994 5.0299
Pt 18.0444 8.36705 15.3268
Au 21.6031 22.5789 11.2862
Pt 20.8048 13.3823 12.5869
Au 13.0234 18.42 11.827
Pt 9.67469 14.0445 15.8158
Au 4.06323 8.83132 14.0807
Pt 17.2733 14.3684 10.2442
Au 21.3264 4.81869 15.0564
Pt 10.6233 24.519 16.0013
Au 3.25444 11.567 13.8463
Pt 22.9538 17.3026 12.926
Au 7.13798 12.6421 21.2821
Au 27.0161 10.8259 15.1282
Pt 15.8212 10.3152 19.542
Au 19.0693 22.946 10.1957
Pt 15.4339 15.0936 24.4916
Au 18.6638 26.4448 21.077
Pt 20.3161 11.1707 21.7097
Au 12.6434 4.24026 14.5773
Pt 14.6753 22.7209 16.8327
Au 14.4411 3.43721 12.6146
Pt 22.2895 12.7629 21.6072
Au 14.1502 17.225 4.14602
Pt 14.0483 15.6909 15.6172
Au 8.61954 14.3823 23.5122
Pt 11.6347 22.21 20.1159
Au 10.3118 7.36084 18.0499
Pt 17.1816 17.1989 9.31353
Au 24.2928 7.76256 12.9615
Au 6.86471 14.5353 9.06936
Pt 12.9124 18.6716 17.1919
Au 13.0669 23.3083 6.98579
Au 13.9989 26.1558 20.9177
Pt 8.26215 23.1025 16.0714
Au 5.41399 12.3756 18.9275
Pt 24.408 15.0485 13.4069
Au 5.46175 17.0114 9.19854
Pt 20.5241 9.63903 15.2797
Au 7.12582 8.07079 17.8651
Pt 6.04974 15.2443 11.9179
Au 11.568 27.0243 16.4064
Au 2.88253 9.73001 11.7684
Pt 5.43155 13.0435 13.5066
Pt 15.8755 20.3517 17.0104
Pt 15.8617 15.9769 19.7557
Pt 10.7225 17.8119 13.3814
Pt 12.3193 18.544 9.20452
Pt 17.9952 19.5989 10.4824
Pt 18.2944 16.5212 6.01086
Pt 16.9532 21.783 21.5093
Pt 22.319 7.68034 15.2497
Pt 10.1136 7.48741 15.2946
Pt 11.8303 13.4732 19.6711
Au 12.5584 24.9322 12.1419
Au 11.0982 19.6618 6.99436
Pt 17.354 20.0687 19.2604
Au 11.0356 13.5126 4.61806
Pt 11.9212 10.3116 7.16644
Au 6.53253 20.4732 20.1324
Pt 14.7159 8.18622 12.1976
Au 4.86205 14.6442 17.483
Pt 16.5125 15.2577 7.65645
Au 18.2469 4.89685 10.6852
Pt 11.1346 12.0786 9.7436
Au 13.4175 8.92375 4.6496
Pt 11.7407 8.39088 11.9537
Au 8.37971 5.96937 16.5659
Pt 8.13458 12.9302 18.2738
Au 16.9323 3.9591 17.3231
Pt 20.0342 17.6558 20.3347
Au 21.4605 18.8696 25.3733
Pt 11.2682 14.3356 22.305
Au 11.5757 24.0198 9.33185
Pt 14.6304 17.1685 8.81852
Pt 11.9237 11.7243 15.3668
Au 9.05411 4.66627 11.7962
Au 20.1487 14.3307 26.2382
Pt 19.9899 15.9185 24.0322
Au 4.73428 9.92686 9.62815
Pt 12.2918 9.58529 9.74
Au 25.7095 16.4127 20.0966
Pt 12.8232 16.0045 10.2047
Au 9.57151 11.9955 22.8906
Pt 7.65993 20.4226 15.4581
Au 15.3436 13.6833 26.8366
Pt 21.7317 12.2157 15.0637
Au 17.5726 15.2672 26.7809
Pt 15.5257 5.54574 11.5016
Au 15.2345 9.39482 9.01476
Pt 14.6216 23.0391 11.8522
Au 13.7316 14.2998 4.15709
Pt 17.2132 23.3007 12.277
Au 20.2828 21.47 25.6161
Pt 14.3271 12.2854 20.6344
Au 17.7886 25.9521 13.5345
Pt 17.6961 6.67134 17.8569
Pt 16.8039 13.273 19.6768
Au 22.3628 24.0082 16.0617
Au 19.4999 18.3065 4.62666
Pt 17.4557 5.81631 15.4056
Au 9.77394 4.16182 14.5424
Pt 10.1131 14.9612 18.18
Au 23.0977 20.7956 9.81515
Pt 16.0056 17.8005 6.6136
Au 14.2211 10.7298 23.0067
Pt 9.55908 18.1026 8.73831
Au 9.44409 21.814 11.1854
Pt 20.8058 22.2778 14.2382
Au 9.06825 20.7943 8.65338
Pt 12.5245 13.788 14.0534
Au 8.73024 25.5909 17.9644
Pt 22.8835 14.091 19.5464
Au 4.19394 11.978 16.4616
Pt 20.7096 9.48722 10.5105
Au 8.89664 21.8151 20.2595
Pt 7.90944 19.3543 10.6717
Au 4.98888 20.4273 14.9797
Pt 19.2655 18.2386 23.0422
Pt 21.1954 21.9754 21.1452
Au 5.37222 12.3445 8.70268
Au 19.3705 11.4271 5.9335
Pt 15.7898 24.9715 17.9795
Au 19.6434 4.46014 17.3557
Pt 14.498 13.1296 15.975
Au 4.85022 7.89477 11.3838
Pt 10.3874 12.5907 7.21698
Au 11.8277 20.0283 24.3643
Pt 11.3691 9.84702 19.2488
Au 17.0294 21.4912 25.3798
Pt 23.5591 12.4721 17.6429
Au 18.707 27.2904 18.4459
Pt 15.3109 15.811 11.2243
Au 18.2268 15.6383 3.44296
Pt 18.0844 13.9096 5.81061
Au 24.1799 22.5042 17.4235
Pt 19.8484 17.6159 9.74816
Au 22.8361 7.52433 10.4503
Pt 17.8038 8.24825 19.9491
Au 22.9857 9.89045 8.83869
Pt 22.0984 10.9959 19.4712
Au 7.87632 10.0826 22.1098
Au 5.75248 22.3316 16.8411
Pt 6.17867 17.926 12.0551
Au 23.1801 25.8496 20.9484
Pt 12.9551 12.7565 6.3373
Au 14.1073 4.19781 16.8247
Pt 16.6763 11.4225 21.8422
Au 11.6212 3.68111 12.1776
Pt 13.3105 18.0062 6.65175
Au 14.2352 24.404 22.9935
Pt 14.4335 13.9808 18.5325
Au 23.1289 9.9562 21.7565
Pt 9.42675 18.8929 23.5327
Au 22.8037 23.7653 22.5734
Pt 10.393 20.3094 21.7268
Au 9.42642 11.4379 20.1904
Pt 16.0363 14.0837 22.0925
Au 25.3609 18.4109 18.2378
Au 17.4374 20.0584 5.7083
Pt 12.9365 20.2587 21.7167
Pt 18.9749 22.2297 19.3616
Pt 9.70964 10.1303 8.53335
Pt 15.9792 15.555 5.07907
Pt 11.8339 18.8475 19.8089
Pt 23.0565 10.1263 16.719
Pt 7.33761 9.80564 10.6775
Pt 11.3585 16.4829 7.71703
Pt 5.94732 10.7353 14.7754
Pt 17.8408 18.3492 15.7509
Pt 15.9839 22.3151 19.1046
Pt 14.4114 10.448 16.0249
Pt 15.3257 8.18984 14.8821
Au 25.6225 13.8709 18.8341
Au 24.6438 11.7683 20.2736
Pt 17.0745 7.30305 12.9744
Au 6.54532 7.82683 9.0205
Pt 13.5228 9.47457 20.5628
Au 22.7166 21.7286 24.4627
Pt 19.1404 21.2594 12.4552
Au 6.2914 20.8174 12.4691
Pt 13.0712 18.317 14.5974
Au 20.3418 11.6584 25.9767
Pt 13.6818 20.4692 7.66775
Au 9.24113 24.5641 20.49
Pt 13.1503 23.45 14.5103
Au 6.47543 14.789 19.6438
Pt 16.4138 9.13071 17.2737
Au 10.7863 26.1316 13.8041
Pt 14.3797 11.7733 13.7054
Au 16.3062 26.9678 19.6609
Pt 13.6268 8.69479 17.8538
Au 24.6222 17.2616 15.5563
Pt 17.0115 13.1464 15.0913
Pt 14.031 22.7307 9.30052
Au 13.9949 9.30474 25.2735
Au 12.8137 17.6961 25.5554
Pt 18.7798 23.7001 21.6363
Au 11.1736 7.60415 8.08062
Pt 13.6362 20.7864 13.0879
Au 9.75011 5.99193 6.32212
Pt 6.64778 13.2071 15.9861
Au 3.75852 16.9888 11.2852
Pt 16.2021 11.9302 17.5281
Au 21.6026 10.0899 6.51277
Pt 13.6454 8.18373 7.22111
Au 8.58363 20.0616 6.1886
Pt 20.3652 13.1083 19.5288
Au 8.86069 5.69958 8.92178
Pt 18.6583 13.2682 21.593
Au 7.0452 23.1178 21.5063
Pt 9.62576 14.7844 8.91182
Au 18.6657 19.3722 25.4377
Pt 15.3762 7.60644 19.3901
Au 8.88491 8.44247 20.1078
Pt 18.254 10.97 16.2087
Pt 14.522 10.6136 6.59949
Au 20.9572 8.03054 8.33047
Au 15.3372 25.542 12.4986
Pt 13.0548 9.33927 14.0007
Au 20.0808 4.17824 12.5998
Pt 11.6266 17.9537 22.5166
Au 18.3593 23.5828 14.5559
Pt 21.7684 17.3992 22.8757
Au 7.70304 12.9178 6.98814
Pt 11.6851 21.2552 9.21793
Au 22.8363 14.8845 23.2344
Pt 20.1836 18.5128 12.298
Au 19.4447 9.34897 24.8176
Pt 13.8567 15.3831 6.74171
Au 8.85616 23.4694 9.16143
Pt 12.16 11.3658 12.2413
Au 7.6669 16.5967 7.43583
Pt 7.90757 18.2691 17.2615
Au 21.079 27.0144 19.7423
Pt 19.9232 13.8455 10.125
Au 24.6313 16.841 22.7153
Pt 13.6452 20.8633 18.8247
Pt 9.34901 8.0561 10.0612
Au 24.7486 18.891 20.8623
Au 22.7366 14.938 6.56116
Pt 9.1222 9.90441 17.7803
Au 24.562 12.0194 10.2336
Pt 19.1293 7.46297 11.1421
Au 26.5972 13.2489 16.3934
Pt 17.6991 17.5971 18.2656
Au 6.14151 17.6591 19.3932
Pt 20.2236 11.1813 8.52255
Au 22.9744 25.2454 18.3873
Pt 11.4305 14.0498 11.3461
Au 24.0531 5.85879 15.0219
Pt 8.45742 12.2082 9.51631
Au 11.5683 4.87313 7.90634
Pt 20.017 6.91109 16.3013
Au 9.83706 24.6384 11.4546
Pt 10.4116 9.92118 14.0158
Au 25.6842 10.7315 17.543
Pt 17.3482 4.63501 13.1069
Au 20.2223 6.48495 19.1063
Pt 18.472 11.0693 19.4891
Pt 18.9748 9.27707 13.0027
Au 19.2204 13.0082 3.63949
Au 20.8791 5.71701 10.3638
Pt 16.5718 10.3493 14.0947
Au 14.1133 5.49828 7.48763
Pt 15.6929 18.4273 11.1653
Au 4.16244 16.8682 13.9972
Pt 6.30304 15.5426 14.7637
Au 15.5412 19.158 25.6554
Pt 5.32446 10.5739 12.2373
Au 16.735 24.7993 10.1584
Pt 21.6231 15.5934 9.09314
Au 7.2755 23.4632 11.6754
Pt 15.4476 19.5437 14.5948
Au 18.8865 8.76724 6.63066
Pt 16.6472 7.43213 10.1946
Au 12.8394 8.29056 22.9745
Pt 7.91187 13.8114 13.7328
Au 11.7058 10.6106 24.188
Pt 19.616 14.0528 15.0412
Au 5.04417 19.5077 10.2338
Pt 16.8851 19.4345 23.254
Pt 9.52656 16.5432 22.1115
Pt 8.8909 16.7142 15.3927
Pt 22.9455 16.6204 20.6254
Pt 8.86893 11.5861 15.5777
Pt 19.1593 20.1421 21.2228
Pt 22.0947 19.2237 21.031
Pt 13.0853 20.857 15.7248
Pt 20.4909 13.6792 7.31877
Au 16.2811 26.2774 22.5077
Pt 10.2364 19.0715 15.7232
Au 23.7862 21.2644 21.9409
Pt 20.4509 20.2931 10.3014
Au 3.3771 14.5237 12.4927
Pt 13.6931 14.8954 21.0051
Au 25.8011 17.2999 12.9588
Pt 21.4471 13.9648 17.0405
Au 23.4544 21.8469 14.7768
Pt 13.9763 13.353 11.4612
Au 5.63837 19.7391 17.5918
Pt 16.5374 15.0348 17.1915
Au 20.4874 15.1265 4.86919
Pt 10.3319 15.2087 13.5243
Au 16.6321 9.70431 24.4204
Pt 12.0922 22.2878 11.531
Au 4.74003 9.26112 16.7629
Pt 8.5816 19.2954 13.2127
Pt 10.4266 16.6192 10.9912
Pt 13.3188 11.4977 18.2082
Au 14.7464 19.8003 5.12929
Au 12.2419 22.4503 23.1685
Pt 21.0868 15.9279 18.7374
Au 6.73446 21.6326 9.75709
Pt 7.54782 15.4805 17.2608
Au 16.3473 13.6171 3.36867
Pt 18.3241 9.35813 9.22921
Au 22.4116 7.47539 20.4792
Pt 6.5728 18.1999 14.6483
Au 16.826 17.9809 3.99066
Pt 20.6693 15.965 11.8254
Au 18.5969 25.4719 23.675
Pt 22.535 18.2891 18.4088
Au 16.6527 6.11215 21.5939
Pt 15.5056 22.281 14.3589
Au 17.8269 23.6746 7.89112
Pt 12.2423 14.0639 16.9321
Au 10.5055 22.4317 7.05441
Pt 17.0354 10.663 7.30449
Au 20.9474 17.0523 6.75529
Pt 10.5626 19.3926 11.0407
Pt 17.6968 21.0337 14.793
Au 24.6115 16.6523 10.584
Au 22.5202 24.0839 13.3295
Pt 21.9904 16.4927 16.2602
Au 15.3745 4.93575 19.3123
Pt 23.8693 16.0406 18.1066
Au 24.243 14.5156 8.80673
Pt 20.5345 13.3287 23.5797
Au 16.1978 8.99992 5.19053
Pt 15.2942 14.4584 13.5534
Au 13.9603 6.42833 21.3314
Pt 15.4897 17.5139 16.5225
Au 10.1908 18.284 25.8491
Pt 21.5332 20.8974 16.5825
Au 18.804 3.50651 15.0007
Pt 15.0157 5.68163 14.2733
Au 25.7181 14.2535 11.2184
Pt 21.6455 22.7047 18.5144
Au 11.0874 13.2556 24.7831
Pt 18.5457 11.6475 23.8223
Au 11.5792 7.42315 20.5297
Pt 18.13 12.8464 8.21554
Pt 17.4367 18.0136 20.8603
Au 17.9813 25.7552 16.3593
Au 17.0554 11.4387 4.61466
Pt 6.52238 12.6517 11.1696
Au 10.6802 16.0253 24.5786
Pt 20.5898 20.1082 19.0311
Au 23.4503 17.2369 8.15901
Pt 18.6457 13.286 17.5115
Au 16.7275 23.5594 23.5849
Pt 10.638 12.0698 17.7161
Au 17.3164 17.9455 27.286
Pt 14.2735 22.4155 21.1978
Au 20.1355 20.4367 6.15829
Pt 11.0847 20.5163 13.4721
Au 12.483 21.3234 5.35512
Pt 20.7498 15.1159 21.3947
Au 8.30225 24.7832 13.8753
Pt 18.1895 15.8514 22.0933
Au 22.8192 12.3966 7.78594
Pt 16.0789 19.6343 8.51774
Au 14.8152 21.3669 23.7104
Pt 21.4373 8.15344 12.7488
Au 26.3567 12.997 13.4912
Pt 16.1675 24.3539 20.7789
Au 7.11736 23.5152 18.8005
Au 25.5288 10.4449 12.8216
Pt 22.253 18.7303 15.0006
Au 11.8512 24.5319 21.4288
Pt 6.79492 10.8513 17.1692
Au 20.3791 25.4002 14.904
Pt 15.3535 19.7793 21.1155
Au 24.6993 19.5989 13.9922
Pt 10.7833 6.18283 13.2643
Au 15.151 7.17059 23.9088
Pt 18.1956 24.6559 19.0327
Au 17.8581 12.5174 26.4036
Pt 20.6076 11.3507 17.4138
Au 13.7467 27.019 18.3893
Pt 18.7457 21.5203 23.3832
Pt 17.6996 18.7887 13.1845
Pt 8.5841 16.6264 19.5997
Pt 23.4591 12.4831 12.8182
Au 6.89721 15.8663 21.9957
Pt 7.91741 11.0418 13.0422
Au 13.02 14.8663 25.8361
Pt 14.7437 14.1884 9.07627
Au 13.4123 4.32499 10.0797
Pt 23.914 19.8629 16.6566
Au 21.6768 12.6421 5.19584
Pt 7.70181 18.3985 21.5994
Au 7.77007 20.8273 22.6942
Pt 13.7723 17.5191 20.9295
Pt 11.9648 11.6576 21.5766
Pt 17.9805 14.2329 24.2497
Au 19.8573 24.3882 12.3882
Pt 17.42 15.9094 14.6558
Au 11.3993 25.4407 18.7504
Pt 24.0828 14.5101 15.9661
Au 24.167 9.22047 19.2758
Pt 15.388 17.1793 13.5466
Au 11.9153 18.8241 4.51033
Pt 16.2263 11.8809 9.65856
Au 22.4201 5.70681 12.7237
Pt 20.3191 9.09804 20.1706
Au 8.50119 8.13811 7.18993
Pt 13.6536 11.792 8.87465
Au 15.7765 21.9824 6.95211
Pt 13.1933 16.3103 18.356
Au 15.4703 27.0834 16.3158
Pt 16.4758 22.0265 9.83254
Au 4.00537 19.2846 12.7868
Pt 14.1704 18.6479 23.4473
Pt 10.9033 20.4652 18.0072
Pt 7.89674 16.706 10.2575
Au 10.5177 9.42502 22.038
Au 6.66095 25.0554 16.2214
Pt 15.7509 16.7965 22.4771
Au 11.5281 9.38592 16.5007
Pt 11.5209 16.3641 15.7504
Au 15.3494 24.5461 7.78827
Pt 23.2897 20.6944 19.1958
Au 15.7081 10.9385 26.6199
Pt 13.6803 24.0133 19.2407
Au 3.65379 12.2291 11.0173
Pt 8.15169 20.9725 17.8586
Au 14.9229 6.69441 5.21873
Pt 19.1411 9.02811 17.7569
Au 9.64093 17.6693 5.81086
Pt 10.3987 21.6967 15.737
Au 22.545 13.2541 25.3544
Pt 18.9067 11.8111 13.7965
Au 9.44887 14.9539 6.19581
Pt 14.3785 10.5951 11.2761
Au 10.4268 3.52392 9.80573
Pt 18.4734 9.44058 22.1929
Au 20.4955 23.4682 23.8131
Pt 19.0335 15.5608 8.33221
Au 18.1302 4.83548 19.7448
Au 11.1562 5.1846 16.6198
Pt 13.3452 25.0537 16.6666
Au 22.3251 5.76093 17.4221
Pt 13.1951 16.0452 23.354
Au 6.88957 19.1511 8.143
Pt 15.7236 24.701 15.1231
Au 16.2062 5.02927 8.9619
Pt 21.9892 14.9856 14.1788
Au 9.65759 22.8697 22.6351
Pt 13.1603 6.0637 12.4696
Au 24.164 12.2289 23.2923
Pt 21.0304 20.2486 23.1728
Au 13.5022 26.384 14.3948
Au 20.9638 25.8973 22.4673
Pt 19.182 15.8743 16.8489
Au 13.7318 7.08793 9.79352
Au 6.83142 10.2208 19.7009
Pt 6.64814 8.5228 13.213
Au 17.8606 7.34247 23.7619
Pt 12.9214 16.031 12.9409
Au 8.91131 26.6943 15.634
