561
Atoms. Timestep: 20712
Pt 16.2442 19.7119 24.2781
Au 25.1961 12.2698 12.5074
Pt 10.5718 8.54426 11.4496
Au 18.4866 4.44231 22.0321
Pt 21.0115 8.91722 11.9861
Pt 13.6351 20.7442 11.8637
Au 10.7571 23.2874 22.5379
Pt 18.9135 7.08785 12.2448
Au 9.56215 7.16369 20.2291
Pt 14.4072 6.6767 13.8449
Au 24.2003 18.3116 20.6695
Pt 16.1286 20.3957 15.7057
Au 13.2231 23.3044 9.99847
Pt 17.9446 21.3083 11.2165
Pt 23.1316 10.7806 11.4937
Au 6.0445 20.2065 15.7328
Au 25.4694 10.4526 14.8335
Pt 19.6403 17.1592 23.4419
Au 6.69534 21.2334 13.3404
Pt 13.5926 18.2298 13.0864
Au 17.3839 22.151 24.6145
Pt 17.1845 25.3951 16.7609
Au 9.68759 4.75131 15.2587
Pt 22.1145 14.9452 8.43771
Au 8.19146 12.5954 6.52515
Pt 20.7582 10.0667 14.6658
Au 8.21981 21.9307 16.0272
Au 17.8485 17.2882 4.13754
Pt 12.1668 7.62827 18.7403
Au 8.8623 13.1677 24.2709
Pt 15.9811 6.28743 18.1947
Au 25.5152 13.3136 15.1051
Pt 18.2744 14.1502 18.0597
Au 14.9322 4.42209 15.5304
Au 18.9869 24.4458 9.76682
Pt 17.4916 18.3228 22.4245
Pt 18.1658 13.5763 15.5398
Pt 9.83438 10.9026 9.93079
Pt 15.1626 22.5373 8.13717
Pt 10.8372 12.2304 7.70851
Pt 9.6551 13.7036 18.146
Pt 13.4872 7.81641 9.91712
Au 12.5114 10.9721 26.2079
Pt 18.4913 17.4031 6.85015
Au 3.56826 14.0073 14.2399
Pt 16.8277 12.5924 24.6704
Au 23.0754 7.24733 15.8928
Pt 20.5725 6.54929 16.5691
Au 10.3837 11.7101 5.09377
Pt 10.897 15.1251 9.31837
Au 9.49279 5.93839 17.8737
Pt 10.7748 11.8376 22.3769
Au 6.51201 20.724 18.57
Pt 20.6587 20.3142 11.5096
Au 24.6426 12.18 9.73569
Pt 13.5953 13.4467 15.3366
Pt 15.4094 24.2378 18.9337
Pt 12.0827 10.5828 11.9528
Au 22.8362 6.40114 20.6177
Au 11.7367 7.22409 21.7346
Pt 10.8913 18.3739 5.59419
Au 6.22041 20.5076 10.5981
Pt 17.0158 17.699 9.05811
Au 8.11462 9.38143 20.4398
Pt 17.5838 22.0547 14.2693
Au 12.0756 16.414 26.7574
Pt 12.4999 13.5153 5.73751
Au 20.6593 16.8602 5.11566
Pt 10.6083 13.1139 11.1977
Au 17.5754 27.8969 16.9641
Pt 21.0356 7.36519 14.0597
Au 22.2768 11.0198 23.154
Pt 14.3878 11.2747 16.9443
Au 16.4803 7.97548 24.4228
Pt 21.9545 15.7941 11.3273
Au 2.8907 16.4514 13.0721
Pt 7.30383 17.3708 11.2352
Au 20.2784 22.1114 9.5985
Pt 17.2292 23.7616 12.1958
Pt 10.192 14.5762 6.7787
Au 24.3632 10.93 21.3334
Au 6.43042 22.9256 9.21274
Pt 18.2306 8.25646 21.9561
Au 24.4727 15.5058 20.3122
Pt 19.7825 11.8124 17.1113
Au 6.30398 18.007 19.5481
Pt 19.0432 5.6568 14.6234
Au 18.6888 6.49997 23.9264
Pt 13.6913 8.84815 20.7115
Au 16.3166 15.1363 3.33316
Pt 13.2986 20.7767 9.01518
Au 4.38772 9.5449 14.5176
Pt 16.0267 16.8254 12.9406
Au 14.3961 8.82606 7.28726
Pt 19.09 21.6898 20.0322
Au 25.7626 12.9476 20.0997
Pt 23.0101 14.2878 15.2737
Au 10.0367 24.6945 19.158
Pt 13.1206 24.8523 14.3836
Au 14.57 13.1062 3.81834
Pt 23.1435 11.7136 14.3555
Au 16.5006 17.4424 27.5175
Au 22.9008 21.9231 10.23
Pt 18.688 8.28235 15.0456
Au 21.6026 22.5642 20.8089
Pt 19.0973 20.148 16.0163
Au 23.5322 6.40452 13.0784
Pt 20.9232 11.546 12.4895
Au 8.7907 22.5145 20.7773
Pt 21.7288 20.048 19.761
Au 6.17447 13.7819 8.55458
Pt 11.347 22.2741 19.9284
Au 20.9352 10.6069 25.479
Pt 16.7978 11.0069 10.7359
Au 9.63149 8.91058 22.6907
Pt 14.4978 8.65316 18.0824
Au 19.5709 3.40342 13.3621
Pt 7.77725 16.1153 9.02682
Au 25.9071 17.6529 13.8417
Au 19.7275 8.26616 7.79105
Pt 8.5283 14.5806 15.8672
Au 25.2936 16.8999 8.54527
Au 23.2213 4.06187 19.5531
Pt 17.3421 17.3153 24.8794
Au 15.6884 27.4681 14.8479
Pt 17.5384 20.9753 22.1461
Au 18.8719 8.60522 25.6988
Pt 9.67746 17.0657 7.52356
Au 5.3553 15.7422 18.06
Pt 11.7749 16.3276 11.8595
Au 19.0846 14.8028 4.20487
Au 9.08496 6.27179 11.1424
Pt 10.7561 15.5846 14.1461
Pt 11.7407 18.0012 19.3748
Pt 18.3737 15.55 13.8645
Pt 10.3831 18.9048 17.0714
Pt 14.1147 11.7408 24.1935
Pt 15.9219 12.4319 15.0229
Pt 24.8423 16.0156 15.6759
Pt 7.86518 15.7231 13.5862
Pt 16.0779 10.8982 7.93496
Pt 11.5898 18.0766 14.8165
Pt 7.58752 9.75896 11.0254
Au 14.4129 25.1642 7.88247
Au 4.08298 14.0883 11.5745
Pt 17.4957 15.7519 22.2006
Au 12.9681 27.458 15.443
Pt 17.2793 19.0576 19.904
Au 23.9961 19.2096 7.65209
Pt 6.92684 18.4822 13.5116
Au 5.36851 16.0773 13.0648
Pt 13.0305 13.9959 8.1951
Au 11.0868 6.56594 9.47704
Pt 14.778 8.86868 15.2043
Au 19.9363 12.5291 5.49338
Pt 19.8718 14.878 9.6623
Au 20.087 13.4233 26.369
Pt 18.0501 13.043 22.2699
Au 18.5614 11.2029 26.4588
Pt 10.9958 21.0808 15.306
Au 23.6641 13.5263 22.1509
Pt 19.7242 22.8022 12.3932
Au 24.1941 19.7545 13.0972
Pt 16.0183 20.1851 9.36638
Pt 14.5764 17.629 19.9334
Au 16.0999 4.19721 10.2371
Au 10.0187 14.8149 26.003
Pt 16.1744 23.0537 16.373
Au 11.8982 25.1772 11.855
Pt 14.2761 8.9541 12.2104
Au 8.16785 22.8375 7.1099
Pt 8.0359 16.3074 21.0204
Au 4.06977 11.6714 12.9299
Pt 10.7654 20.3227 10.1255
Au 12.0788 24.9756 20.9178
Pt 11.1155 11.169 14.6739
Au 8.14 11.2568 22.5316
Pt 10.3201 15.7027 19.7514
Au 21.7818 19.206 6.14607
Pt 12.7399 23.8864 18.38
Au 19.4714 24.348 21.1124
Pt 16.6515 13.475 19.951
Au 19.2855 25.6874 12.1656
Pt 8.02185 12.3606 11.3192
Au 18.8264 26.2603 18.9281
Pt 18.0756 12.5661 13.0319
Pt 9.284 13.3333 13.5141
Au 7.69462 23.8151 14.1438
Au 12.9324 11.1035 4.47772
Pt 10.012 8.85168 18.026
Au 22.304 9.03195 21.2284
Pt 9.64991 20.1132 7.36744
Au 16.2576 24.6342 9.79256
Pt 14.4817 11.9909 11.8797
Au 21.858 4.72191 14.4855
Pt 9.62604 17.7304 12.8725
Au 19.7346 18.0477 26.1282
Pt 9.383 14.0381 21.7143
Au 4.80298 13.3955 19.4914
Pt 15.5498 15.621 10.5033
Au 9.36397 10.0575 7.1677
Pt 17.8023 16.0844 16.4619
Au 6.52382 11.5631 20.3517
Pt 10.9711 15.0964 23.4669
Au 7.88242 10.7088 17.9613
Pt 15.1468 21.9172 22.7633
Au 13.8903 20.2082 3.97344
Pt 16.1624 15.1845 25.8223
Pt 14.5062 21.8957 17.8645
Au 16.8147 5.29924 13.2385
Au 21.0943 5.47083 12.0249
Pt 18.3458 5.10178 17.275
Au 22.0311 20.5255 22.6651
Pt 20.5198 21.9588 14.8113
Au 8.87839 8.30344 9.23373
Pt 15.0849 15.6938 7.81306
Au 21.1013 2.79938 18.5766
Pt 12.3591 9.47996 16.4405
Au 14.825 28.0883 17.2907
Pt 20.4681 14.8042 16.3593
Au 17.9729 6.55659 9.42402
Pt 18.9184 23.131 16.596
Au 22.0355 14.3541 5.81117
Pt 17.5907 18.2004 14.4972
Au 17.3929 25.9769 21.3827
Pt 12.1724 13.1702 13.2096
Au 24.5291 14.4931 7.56047
Pt 19.7582 19.6921 21.5567
Au 25.4685 14.4016 17.8044
Pt 19.8809 10.4287 21.7067
Au 12.3134 17.9094 3.19727
Au 7.52632 7.92987 18.1763
Pt 16.8904 23.4271 21.3303
Au 11.8055 21.745 24.804
Pt 18.6439 24.3921 14.4322
Au 20.7297 5.55463 18.9952
Pt 10.504 22.8976 17.2504
Au 24.9086 17.2772 11.3464
Pt 15.5227 22.1716 10.929
Au 14.0404 4.44895 18.3526
Pt 13.1377 11.2595 21.464
Au 13.508 15.4584 2.74748
Pt 18.1923 9.82417 18.9344
Au 14.4436 25.4121 16.6532
Pt 20.8627 13.6335 18.7313
Au 13.3592 26.4394 18.9679
Pt 12.2207 8.561 13.9319
Au 4.32818 18.4948 14.3814
Au 19.2609 19.423 5.03025
Pt 9.00383 17.1904 15.5153
Pt 12.4986 15.9573 21.3626
Pt 20.7898 17.3059 7.83035
Pt 21.8071 15.4356 20.5539
Pt 13.1987 16.4297 9.60907
Pt 19.8773 20.8017 7.21199
Pt 17.5506 15.2684 8.55992
Pt 10.4712 19.9651 20.9769
Pt 15.041 17.1697 22.8838
Pt 22.2783 17.5708 18.8945
Pt 21.0755 10.2567 9.63885
Pt 14.2312 10.3129 9.80394
Pt 15.5758 14.5434 23.4378
Au 10.1484 22.14 5.46948
Au 24.7341 8.24976 20.0141
Pt 22.8683 9.88455 16.3167
Au 12.8463 23.4085 6.76322
Pt 17.3837 19.7873 7.11486
Au 12.2189 13.6408 27.1672
Pt 15.9663 24.8452 14.3757
Au 15.3711 6.35033 8.36536
Pt 9.37126 11.8064 19.9851
Au 19.4138 17.2614 20.6874
Pt 16.6955 9.35878 16.764
Au 24.5919 5.23335 15.3758
Pt 19.8 12.3205 23.8974
Au 11.7481 13.39 3.24246
Pt 12.4119 12.04 9.77837
Au 11.6102 5.26661 19.7023
Pt 18.1085 16.0521 11.3017
Au 14.7619 12.7428 26.6307
Pt 10.4703 11.3316 17.2955
Au 17.0934 8.34224 7.23484
Pt 12.5916 10.6928 18.8415
Pt 20.6221 12.8296 14.6799
Au 15.4753 10.6713 5.33182
Au 16.0677 10.3492 25.9064
Pt 20.0046 14.0987 12.1622
Au 11.6627 9.34851 8.80014
Pt 11.1267 7.14307 16.1209
Au 3.93421 13.5968 16.9778
Pt 13.3353 20.2883 19.8454
Au 6.75201 9.35041 15.8301
Pt 15.4929 12.3476 22.044
Au 18.0046 10.2725 23.8284
Pt 9.47538 10.6711 12.7901
Au 22.4143 21.6283 7.49375
Pt 7.84163 22.7637 11.497
Au 5.38647 11.9019 15.4102
Pt 12.7807 18.541 21.7613
Au 7.48214 14.0491 19.7695
Pt 5.92639 14.6455 15.439
Au 6.27544 17.7201 22.308
Pt 14.6402 17.4112 25.5376
Au 11.0905 20.2721 3.75661
Pt 18.682 9.93364 12.7664
Pt 10.238 6.9173 13.6646
Au 10.253 24.5211 6.82187
Au 4.91722 16.0915 9.9891
Pt 15.8654 14.0846 12.7378
Au 17.8581 22.0242 5.69476
Pt 6.79241 10.6967 13.3981
Au 9.31073 14.1378 4.34108
Pt 15.2648 9.73155 22.7314
Au 16.015 24.3471 23.627
Pt 9.54115 9.22129 15.344
Au 25.1311 11.758 17.276
Pt 20.4747 14.7653 22.8308
Au 17.3624 13.4078 27.3284
Pt 17.4051 13.5783 10.5344
Au 7.32867 11.14 8.70044
Pt 10.7364 16.1153 17.1721
Au 24.3037 18.7889 15.7243
Pt 13.4473 18.161 5.6813
Au 17.6452 19.7495 26.4985
Pt 11.0966 19.4186 23.5515
Au 16.4025 6.23967 22.237
Pt 12.5701 21.2971 22.2249
Pt 20.0748 17.5272 10.2876
Au 16.9481 24.243 7.06786
Au 14.4338 15.294 27.773
Pt 13.0404 15.5978 18.7431
Au 18.194 6.18083 20.0278
Pt 10.6447 22.8294 11.0199
Au 23.0558 22.3186 18.4563
Pt 15.9644 17.7039 6.16189
Au 12.2163 9.58622 23.3537
Pt 15.1836 13.2243 6.52835
Au 13.4576 5.04951 9.83283
Pt 9.11366 18.1809 19.4855
Au 19.6687 23.4936 7.15685
Pt 17.7352 12.9234 7.43376
Au 14.328 4.25181 12.4744
Pt 12.1146 20.7939 17.668
Au 13.8046 26.9756 12.8992
Pt 13.7338 6.68385 16.5382
Au 14.7532 25.4637 21.3623
Pt 21.7039 19.3482 16.9147
Au 23.317 8.08544 10.8927
Pt 19.888 17.5814 15.6818
Pt 15.1407 18.3142 10.937
Au 14.5744 22.2118 25.2761
Au 23.9297 21.0187 20.7754
Pt 17.2482 10.6048 21.2501
Au 22.5407 4.55952 17.0503
Pt 16.0016 20.0206 12.9743
Au 9.27368 24.8934 12.2851
Pt 6.86388 13.2072 17.409
Au 5.03602 9.3036 11.872
Pt 18.4613 14.7466 24.546
Au 22.4312 21.9736 12.9345
Pt 22.3581 16.9096 16.173
Au 8.94639 24.2919 9.4003
Pt 13.0153 18.2827 17.1159
Au 21.8307 18.3505 24.3046
Pt 10.9254 13.5723 15.7365
Au 21.8868 23.7247 16.339
Pt 12.5936 17.0982 23.9848
Au 13.9763 8.95011 25.2307
Pt 17.0222 15.196 5.94455
Au 8.60702 19.7645 5.0079
Pt 16.6855 8.06272 13.156
Pt 10.9586 9.66941 20.5195
Pt 14.0772 13.078 19.7337
Pt 22.3317 7.99512 18.409
Pt 17.1399 16.296 19.389
Pt 21.655 19.3768 14.2227
Pt 17.4074 18.4325 17.2269
Pt 12.2749 22.545 13.1178
Pt 13.6458 15.5461 13.4544
Au 21.2694 24.5862 13.8821
Pt 23.5348 10.3603 18.8567
Au 12.3951 6.42052 11.9773
Pt 8.20794 8.36582 13.1502
Au 4.78289 18.4703 17.3446
Pt 10.1985 17.3142 24.9511
Au 23.2113 16.7656 6.58349
Pt 18.7627 8.99272 10.3766
Au 18.266 26.9696 14.4397
Pt 8.32978 11.7737 15.4314
Au 13.9981 26.1775 10.3116
Pt 21.1684 12.7111 21.3333
Au 11.471 25.6028 16.7651
Pt 15.7456 15.2007 15.1444
Au 12.7424 6.80697 7.48483
Pt 18.8858 19.609 9.28671
Au 8.83914 24.9056 16.4179
Pt 15.2717 16.6181 17.5282
Pt 8.02293 16.1649 18.034
Pt 12.4771 13.1915 17.7138
Au 12.5822 22.4912 4.30175
Au 19.9212 25.7961 16.3948
Pt 16.1628 10.536 13.3347
Au 8.96073 16.8359 4.73815
Pt 9.49772 21.9461 13.2915
Au 20.965 3.887 21.0552
Pt 20.0838 8.22328 19.8477
Au 12.3558 5.06486 14.4603
Pt 16.0074 21.457 19.9581
Au 11.7705 4.65677 17.0617
Pt 13.4973 20.2429 14.9561
Au 14.9274 19.911 26.6831
Pt 17.8024 18.6497 11.5603
Au 8.08584 6.92501 15.6692
Pt 22.9109 15.0834 17.9374
Au 21.845 24.0129 8.58382
Pt 17.5593 21.1412 17.9023
Au 5.49504 11.8603 10.6377
Pt 11.5559 13.3666 20.2507
Au 7.68771 19.9028 21.0848
Pt 12.5615 18.6564 10.6986
Pt 19.9779 16.3951 18.2765
Au 14.1582 6.23265 20.4113
Au 25.1809 8.74964 17.2252
Pt 18.3174 7.58 17.7304
Au 22.2018 13.4187 24.5002
Pt 22.3227 18.4215 11.672
Au 24.396 6.20372 18.1628
Pt 10.5834 23.8275 14.7045
Au 8.20759 15.865 23.712
Pt 13.9006 22.9434 20.6333
Au 18.6838 3.4652 19.4185
Pt 21.9984 12.9368 10.2451
Au 11.8356 9.34613 6.14941
Pt 22.4363 12.3873 16.9854
Au 10.4595 4.48202 12.5898
Pt 18.9088 12.1156 19.7888
Au 15.4794 6.53148 11.223
Pt 15.3531 10.7684 19.4958
Au 17.4737 3.41026 15.168
Pt 13.3911 11.3602 7.29927
Au 4.73633 18.3634 11.6426
Pt 12.3274 16.2532 7.08888
Pt 19.9918 17.6717 12.9116
Au 7.53359 15.2381 6.4927
Au 7.80541 5.53258 13.3339
Pt 6.38653 13.301 13.2584
Au 25.1329 15.0713 13.0384
Pt 6.78565 14.6197 11.0523
Au 24.2986 14.7873 10.3083
Pt 11.5425 15.7838 4.65358
Au 9.26488 20.8474 18.6027
Pt 16.2648 8.19697 20.1253
Au 21.0867 15.7959 25.3578
Pt 19.6092 19.0916 18.5706
Au 23.4725 9.89588 8.83865
Pt 21.6128 19.6124 9.08023
Au 16.1662 26.7804 19.1361
Pt 22.7969 13.6914 12.652
Au 19.2641 19.9154 24.2312
Pt 19.204 14.6683 20.5113
Au 18.6707 15.773 27.031
Pt 17.7309 22.1586 8.62085
Au 9.65603 19.9937 25.6423
Pt 17.8895 23.7318 18.8778
Au 6.76796 13.7811 22.377
Pt 21.1088 10.7691 19.2758
Au 10.9528 22.3871 8.3051
Au 14.068 7.31443 23.0708
Pt 15.0248 17.9544 15.2842
Au 15.1708 22.6098 5.3659
Pt 19.3384 11.971 10.5456
Au 15.1007 17.6561 3.48991
Pt 8.62397 21.5066 9.41503
Au 18.2525 10.4076 5.83131
Pt 15.0258 15.2559 20.9419
Au 9.18324 21.2629 23.2151
Pt 14.9296 22.3412 13.9319
Au 16.1848 4.31054 20.2478
Pt 13.5243 14.7926 25.0484
Au 5.6193 18.371 8.90764
Pt 21.7824 17.955 21.6153
Pt 13.0461 15.8821 15.9966
Pt 13.6543 11.0045 14.2463
Pt 22.9076 17.2921 9.3653
Au 8.35598 18.6972 23.5569
Pt 8.81063 13.553 9.05156
Au 6.74481 20.588 7.59344
Pt 14.5168 24.304 12.1773
Au 13.3158 23.8589 23.2913
Pt 20.6015 21.5789 17.7652
Au 20.6844 24.1883 18.6895
Pt 13.1295 13.7177 22.5109
Au 7.86017 23.2335 18.3565
Pt 16.5991 6.67858 15.6437
Pt 11.6616 12.8909 24.6439
Pt 13.3013 14.2247 11.0432
Au 11.6091 25.1592 9.02716
Pt 12.2673 20.6659 6.37755
Au 25.4365 7.7439 14.5601
Pt 9.28384 15.3173 11.4326
Au 22.8901 15.9987 23.1059
Pt 8.87688 19.6922 14.7259
Au 5.40308 15.652 20.8622
Pt 11.7613 18.6449 8.13537
Au 20.0816 3.46716 16.1709
Pt 15.1914 13.0192 9.30179
Au 20.8371 7.16497 9.93894
Pt 14.8724 20.3189 6.65427
Au 23.1025 21.3194 15.6938
Pt 14.4061 18.3089 8.28873
Au 23.2029 9.07186 13.6714
Pt 8.62757 19.9074 11.7435
Au 21.0875 10.392 6.87826
Pt 15.1631 19.4185 18.0506
Pt 21.1327 15.6066 13.9723
Pt 7.75857 18.8321 17.2441
Au 20.5865 8.63638 23.5856
Au 16.9365 2.85555 12.4613
Pt 15.3198 13.9955 17.5127
Au 26.1899 10.3909 19.3277
Pt 10.1244 17.5921 10.1803
Au 24.3051 19.6538 10.2534
Pt 23.2431 12.9242 19.5453
Au 16.4305 3.37956 17.695
Pt 13.7128 19.7176 24.0923
Au 3.72993 16.2656 15.7887
Pt 10.2441 17.341 22.035
Au 5.85817 7.44785 13.8589
Pt 20.3176 9.22499 17.1337
Au 22.9535 12.2875 7.55569
Pt 19.649 14.9484 6.90243
Au 13.8768 17.9154 28.1001
Pt 20.3665 12.6886 8.15589
Au 20.4398 6.44556 21.8773
Pt 6.39701 17.1367 15.7296
Au 12.1751 19.1224 26.2183
Pt 11.2482 19.9131 12.8304
Au 10.8196 26.3869 14.1124
Pt 18.2252 10.8934 15.2238
Au 5.1709 11.1058 17.9553
Au 10.0793 10.713 24.7446
Pt 8.18372 18.8991 9.20529
Au 24.0885 19.8138 18.2818
Pt 16.9929 11.8752 17.583
Au 16.5594 19.9002 4.45292
Pt 19.0275 20.125 13.4379
Au 6.63798 7.24157 11.2161
Pt 15.204 19.5587 21.6759
Au 18.6243 4.60072 11.1534
Pt 18.6095 10.6405 8.41464
Au 24.8699 17.1743 18.0958
Pt 23.2713 17.0316 13.6559
Au 16.4722 26.4034 12.1743
Au 19.7314 22.3093 22.8856
Pt 14.3228 15.558 5.27612
Au 7.28291 18.0267 6.68644
Au 17.2416 12.7368 4.64822
Pt 16.2166 8.63301 9.80681
Au 25.3746 9.50331 12.2
Pt 13.0459 22.8097 15.9102
Au 21.5661 24.2361 11.1864
