561
Atoms. Timestep: 20158
Pt 7.5261 7.29641 15.121
Au 5.34237 9.17464 15.0026
Pt 7.57165 11.078 11.1189
Au 5.52401 7.28728 16.9686
Pt 5.57322 11.1604 13.0314
Pt 5.44566 11.1623 16.9946
Au 5.76904 13.2029 7.18143
Pt 5.80727 15.0816 9.08997
Au 3.65601 13.2089 12.9194
Pt 4.03661 15.2137 11.0302
Au 3.63865 15.305 19.0067
Pt 5.50866 13.1629 15.0047
Au 7.44328 5.30494 17.0411
Pt 5.45437 15.1378 16.9885
Pt 7.2946 11.1531 19.1107
Au 7.80551 13.1337 5.2984
Au 3.63667 17.1771 12.8873
Pt 5.98721 17.0062 7.28667
Au 3.52477 15.189 14.9285
Pt 5.84254 17.0783 11.0458
Au 3.57369 17.2092 16.9805
Pt 5.51041 17.0986 14.966
Au 5.44954 13.1218 22.9305
Pt 5.5473 17.1574 18.9417
Au 4.55511 17.4365 21.4289
Pt 5.48851 15.0263 20.982
Au 3.95693 17.1267 9.08788
Au 4.00618 21.0363 12.9332
Pt 4.20403 19.0461 11.0232
Au 4.34361 19.4688 19.4115
Pt 5.60109 19.0283 16.8952
Au 6.11636 19.6249 21.73
Pt 5.30597 21.4002 17.7266
Au 3.74177 19.1894 14.9327
Au 6.21847 23.563 16.6369
Pt 5.78595 21.132 15.0138
Pt 9.54523 7.29851 13.2014
Pt 7.72464 7.32712 11.3009
Pt 7.37458 9.21775 17.0827
Pt 9.47538 5.4209 15.2146
Pt 9.36335 7.29304 17.1852
Pt 5.64795 13.0857 11.0474
Au 7.52877 9.03411 9.13503
Pt 9.73744 9.15386 7.37093
Au 5.60401 9.15118 11.1812
Pt 7.50633 9.23465 13.173
Au 5.72493 7.17271 13.1201
Pt 9.52426 9.18772 11.1782
Au 11.4871 3.61095 15.2771
Pt 7.37581 11.1375 15.1108
Au 9.39854 9.22762 15.1834
Pt 9.45788 11.1189 13.1612
Au 7.24867 7.17633 19.1155
Pt 9.40014 5.47286 19.0841
Au 9.52165 3.54222 17.1749
Pt 9.1938 9.14405 19.2216
Pt 11.1815 9.22229 21.1547
Pt 9.67388 13.0341 7.19899
Au 11.7008 9.09662 5.42648
Au 5.65502 11.1672 9.15275
Pt 7.64791 13.0603 9.11913
Au 9.51785 11.0729 9.16081
Pt 11.6802 14.9524 7.17615
Au 3.61841 11.3004 14.9465
Pt 5.62726 15.1227 13.0724
Au 7.48436 13.056 13.0906
Pt 9.50696 13.0296 11.1551
Au 3.52509 13.239 16.9106
Pt 7.25449 13.1062 17.1223
Au 9.28316 11.1781 17.2136
Pt 9.3235 13.0588 15.1783
Au 5.15328 12.9947 19.0973
Pt 7.29083 13.1131 21.024
Au 9.21304 11.162 21.1202
Pt 9.22963 13.134 19.1579
Au 5.35182 9.27071 18.9451
Pt 7.36377 11.2313 22.9577
Au 9.17953 11.1916 24.9736
Pt 11.1763 11.2094 23.127
Pt 7.80335 15.0424 7.18714
Au 7.604 11.0465 7.1134
Au 9.65867 14.9863 9.14121
Pt 7.78539 17.0332 9.10934
Au 11.6782 16.9089 9.14418
Pt 9.73676 16.9806 7.16512
Au 7.60523 15.0284 11.0957
Pt 7.56818 17.0317 13.0926
Au 9.51805 15.0412 13.1615
Pt 9.59351 16.9884 11.1181
Au 7.45368 15.1017 15.1113
Pt 7.39528 17.0975 17.0389
Au 9.34136 15.0536 17.1515
Pt 9.46354 17.0102 15.1572
Au 7.24967 15.0559 19.0386
Pt 7.22045 17.1062 21.0614
Au 9.1312 15.1518 21.2003
Pt 9.17999 17.0308 19.0997
Au 5.33852 11.1303 21.0862
Pt 9.10261 13.1997 23.1213
Au 9.20097 15.1341 25.0948
Pt 9.21312 17.1329 23.1797
Au 7.83608 16.9557 5.28873
Au 7.77195 19.1311 7.01791
Pt 5.98253 19.0083 9.06882
Au 9.72884 18.9798 9.09852
Pt 7.95293 20.9701 9.12906
Au 7.70897 19.0841 11.0777
Pt 5.79941 19.0767 13.0467
Au 9.62869 18.9284 13.099
Pt 9.76436 20.9843 11.0976
Au 7.58386 19.0458 15.0401
Pt 7.70636 21.1059 16.8937
Au 9.42269 18.9908 17.1801
Pt 9.60938 23.046 16.9302
Au 7.15174 19.5022 19.1075
Pt 8.04245 21.3734 21.0805
Au 9.18353 18.9443 20.9556
Pt 9.55926 21.1151 18.9511
Au 7.13404 15.2031 23.2169
Au 9.82778 19.092 25.4415
Pt 8.64625 19.9637 23.2816
Au 5.80712 21.2098 10.8617
Au 5.91365 23.0095 13.0456
Pt 7.72009 21.0295 12.9729
Au 11.6724 20.9026 13.1362
Pt 9.80635 22.9583 13.0155
Au 9.65718 20.9816 15.033
Pt 7.64279 22.9321 18.8166
Au 9.56935 25.0471 18.6541
Pt 7.91862 23.0047 14.825
Au 6.73914 17.8932 23.6429
Au 5.59379 21.8543 20.2329
Pt 9.61274 23.3704 20.7114
Pt 11.4748 7.21926 11.3073
Pt 15.5157 9.12018 9.38339
Pt 11.4186 5.38788 13.2492
Pt 13.5172 5.36885 11.4331
Pt 11.4246 5.43896 17.2554
Pt 13.4192 5.37765 15.3287
Pt 11.2831 5.48234 21.058
Pt 13.3198 5.40441 19.2932
Pt 11.2897 7.33869 23.0081
Pt 11.6349 11.0601 7.34146
Au 11.6385 7.08283 7.35624
Au 9.57556 7.07824 9.29508
Pt 11.5416 9.09853 9.30312
Au 11.6452 5.23802 9.5027
Pt 13.5783 11.0359 5.5119
Au 7.7638 5.34294 13.1551
Pt 11.4262 9.19955 13.2289
Au 13.4277 7.23051 13.3426
Pt 13.4573 9.14829 11.326
Au 11.4175 7.26224 15.254
Pt 11.2818 9.22665 17.2602
Au 13.3572 7.31072 17.3152
Pt 13.3751 9.20012 15.308
Au 11.3926 3.58784 19.1523
Pt 11.2894 7.33689 19.2048
Au 9.16792 7.14494 21.2611
Pt 13.2567 9.26394 19.3065
Au 7.17481 9.11763 21.1769
Pt 9.28459 9.26817 23.0188
Au 14.8439 9.02916 25.1934
Pt 13.1027 9.2626 23.1916
Pt 11.671 12.9587 5.38886
Au 17.634 10.9613 5.29402
Au 9.75356 11.0536 5.31596
Pt 11.5661 13.0137 9.18443
Au 13.5616 11.0719 9.26942
Pt 13.6079 13.0289 7.22765
Au 11.4979 11.1215 11.2247
Pt 11.4354 13.0508 13.2242
Au 13.4562 11.1209 13.3032
Pt 13.5162 13.0114 11.2524
Au 11.3839 11.1757 15.2396
Pt 11.3028 13.1057 17.2283
Au 13.3329 11.1734 17.299
Pt 13.3987 13.0584 15.2868
Au 11.2579 11.1941 19.2305
Pt 11.1408 13.1549 21.258
Au 13.2159 11.2461 21.3299
Pt 13.2474 13.1365 19.3261
Au 11.1211 9.19872 25.0182
Pt 11.0687 13.1223 25.0009
Au 13.0017 11.2141 25.3176
Pt 13.1415 13.1639 23.3302
Pt 11.7563 16.9519 5.37325
Au 13.6182 14.8842 5.06499
Au 9.83179 15.0075 5.11737
Pt 11.7769 18.9041 7.26194
Au 13.626 14.92 9.19902
Pt 13.7166 16.8017 7.14266
Au 11.5601 14.9651 11.2105
Pt 11.5551 16.9108 13.2041
Au 13.4905 14.9411 13.2651
Pt 13.6054 16.8374 11.2185
Au 11.4097 15.0031 15.2213
Pt 11.3758 16.9565 17.2223
Au 13.3421 14.9863 17.2949
Pt 13.4588 16.8803 15.2727
Au 11.2339 15.068 19.2401
Pt 11.2121 16.9757 21.1919
Au 13.2325 15.0657 21.3203
Pt 13.3122 16.9247 19.2597
Au 11.1678 15.0999 23.2153
Pt 11.2442 17.0057 25.0431
Au 13.0568 15.0241 25.4315
Pt 13.1838 17.0138 23.2998
Pt 9.96504 20.8967 7.24326
Au 11.9375 20.819 5.32708
Au 9.912 18.9194 5.23845
Pt 11.8299 20.8982 9.16506
Au 13.7203 18.7951 9.18017
Pt 13.816 20.8564 7.27058
Au 11.66 18.876 11.1543
Pt 11.6549 22.9218 15.074
Au 13.5913 18.8144 13.2431
Pt 15.7129 22.7906 11.2496
Au 11.5316 18.8852 15.2069
Pt 11.5087 21.0147 17.0845
Au 13.4139 18.8866 17.2322
Pt 13.5732 20.9038 15.1819
Au 11.3272 18.9552 19.1883
Pt 11.0031 21.0823 21.2678
Au 13.2475 18.9238 21.2022
Pt 11.5283 22.9995 18.9893
Au 11.1636 18.9494 23.0072
Pt 11.0162 21.2224 24.2893
Au 15.0107 21.0615 25.0811
Pt 13.2295 21.0634 22.8795
Au 11.9282 22.8657 7.20218
Au 7.89059 23.0671 11.0074
Pt 11.8178 22.8305 11.1404
Au 9.99393 24.8555 11.1054
Pt 9.99611 22.8343 9.18129
Au 13.7203 20.8321 11.2059
Pt 11.8395 24.7461 13.0935
Au 13.7103 22.8417 13.1937
Pt 13.8072 24.6756 11.2401
Au 9.82238 24.9808 14.9715
Pt 11.6987 24.8129 16.9915
Au 13.5535 22.8694 17.0922
Pt 13.6643 24.7926 15.1219
Au 11.6066 25.2277 20.6986
Pt 11.4571 23.2723 22.6592
Au 13.4855 24.9853 22.7952
Pt 13.593 24.8292 18.9715
Au 8.96139 22.616 23.2548
Au 13.1144 22.997 24.7497
Pt 13.3934 22.9713 20.947
Pt 13.5589 9.05087 7.38589
Pt 15.4971 5.36062 9.59002
Pt 15.5013 7.21048 7.53693
Pt 15.4388 5.36118 13.4084
Pt 17.4285 5.3367 11.5028
Pt 15.3187 5.39564 17.4063
Pt 17.4263 5.39624 15.4935
Pt 15.1967 5.43721 21.2484
Pt 17.2776 5.44286 19.4204
Pt 14.9646 7.2646 23.1711
Pt 19.5199 6.768 22.3301
Pt 19.6562 12.8565 5.6236
Au 15.5018 9.00563 5.39134
Au 13.6912 5.25853 7.64968
Pt 13.5196 7.23599 9.45818
Au 17.3031 5.19957 7.60994
Pt 17.5116 9.09084 7.4527
Au 15.4768 7.24142 11.4462
Pt 15.4545 9.15758 13.3788
Au 17.4409 7.19891 13.4723
Pt 17.512 9.11969 11.4065
Au 15.4077 7.22705 15.3976
Pt 15.3425 9.22729 17.3763
Au 17.3448 7.26038 17.4591
Pt 17.4093 9.16779 15.4406
Au 15.2698 7.30991 19.3477
Pt 13.1992 7.35482 21.1608
Au 17.7515 4.7315 21.9695
Pt 17.0842 7.34234 21.4103
Au 13.1309 5.33272 22.9803
Pt 15.147 9.28439 21.3809
Au 17.3998 6.541 24.019
Pt 16.9435 9.18893 23.439
Pt 15.6156 12.8827 5.40785
Au 17.7673 14.7938 5.19997
Au 15.5843 10.989 7.27793
Pt 15.5595 12.9889 9.1952
Au 17.5261 11.0569 9.3729
Pt 17.6122 12.8963 7.28562
Au 15.5054 11.0869 11.3515
Pt 15.4851 13.0096 13.3395
Au 17.4841 11.0743 13.4291
Pt 17.5304 12.9651 11.3428
Au 15.4169 11.1242 15.3727
Pt 15.3675 13.0842 17.3617
Au 17.4032 11.1606 17.4307
Pt 17.476 13.002 15.4204
Au 15.2552 11.2556 19.3767
Pt 15.1999 13.1712 21.5149
Au 17.1283 11.258 21.506
Pt 17.3226 13.1141 19.5038
Au 15.1628 11.1788 23.5504
Pt 15.0476 13.1747 25.2164
Au 17.1459 15.1026 25.5186
Pt 17.1187 13.1774 23.5422
Pt 13.7381 18.8321 5.45638
Au 15.7429 16.917 5.10559
Au 15.663 14.9131 7.08024
Pt 15.652 16.786 9.16648
Au 17.5729 14.8283 9.26329
Pt 17.6814 16.7482 7.21057
Au 15.5476 14.887 11.2739
Pt 15.5126 16.8016 13.2986
Au 17.5035 14.8773 13.3721
Pt 17.5579 16.7445 11.3096
Au 15.4398 14.9241 15.339
Pt 15.3755 16.8523 17.3265
Au 17.3947 14.9593 17.4371
Pt 17.4474 16.7868 15.37
Au 15.3095 15.0038 19.3891
Pt 15.2391 16.9731 21.3941
Au 17.216 15.0665 21.4906
Pt 17.3399 16.9194 19.4399
Au 15.1672 15.1741 23.5192
Pt 12.9333 19.2546 24.8844
Au 14.9801 17.19 25.4398
Pt 17.1872 17.0669 23.479
Pt 15.8397 22.7166 7.41678
Au 15.794 20.788 5.35355
Au 15.7141 18.7633 7.22454
Pt 19.5853 22.6271 11.4155
Au 17.6376 18.7103 9.29362
Pt 17.7286 20.7419 7.43648
Au 15.6304 18.7305 11.2806
Pt 15.6121 20.8395 13.2545
Au 17.5043 18.7029 13.3385
Pt 17.6054 20.7662 11.3345
Au 15.4574 18.7951 15.2914
Pt 15.4107 20.8577 17.2221
Au 17.3984 18.7321 17.3347
Pt 15.5626 22.8459 15.1826
Au 15.3325 18.8287 19.2929
Pt 15.2865 20.9156 21.1692
Au 17.2773 18.8835 21.4375
Pt 19.2647 22.7192 19.1601
Au 15.1233 18.974 23.3081
Pt 15.2508 22.9065 23.004
Au 17.094 19.081 25.2383
Pt 17.0526 20.9005 23.2067
Pt 17.7041 22.6948 9.39755
Au 17.8804 24.6001 7.47789
Au 15.7142 20.7769 9.27758
Pt 13.8255 22.8113 9.2335
Au 15.7748 24.7923 9.29192
Pt 19.6726 24.4948 9.51197
Au 11.9832 24.7677 9.22061
Pt 15.6842 24.7587 13.1943
Au 17.4607 20.7611 15.3121
Pt 17.5623 22.7627 13.2959
Au 15.6826 26.6475 15.2184
Pt 15.5675 24.7701 17.1325
Au 17.698 26.6677 17.256
Pt 17.6673 24.653 11.3197
Au 13.3099 20.9135 19.2062
Pt 15.4189 22.8219 19.1289
Au 17.3149 20.7912 19.251
Pt 17.4101 22.7698 17.1934
Au 15.601 26.6175 19.0887
Pt 15.4675 24.734 21.0286
Au 18.0961 25.2156 21.8049
Pt 17.2971 22.7881 21.1894
Pt 17.4418 7.19774 9.50484
Pt 19.3803 5.32219 13.5268
Pt 19.3739 7.14674 11.4869
Pt 19.4273 5.54478 17.6458
Pt 21.5075 5.8494 15.9657
Pt 19.8351 5.09407 20.2323
Pt 19.1932 7.43663 19.6617
Pt 19.5433 10.9116 7.48949
Au 17.4783 7.09138 5.66916
Pt 19.4764 9.06723 9.45649
Au 19.2659 5.10411 9.5121
Pt 19.3409 7.12199 7.66344
Au 21.1945 5.08998 11.4192
Pt 19.4643 9.10718 13.4391
Au 23.9056 6.54667 14.2696
Pt 21.3764 9.05112 11.4379
Au 19.3652 7.25682 15.5308
Pt 19.4173 9.12997 17.5607
Au 22.0657 5.02103 18.6227
Pt 21.4165 7.44726 18.1628
Au 17.25 9.29329 19.4589
Pt 19.0399 9.28091 21.6528
Au 21.8339 6.74345 20.975
Pt 21.2285 9.27212 19.9212
Au 19.2755 8.52833 24.5264
Pt 18.8369 11.1253 23.5641
Pt 21.2969 8.75153 22.8575
Pt 19.614 14.8282 7.37881
Au 21.6483 14.7298 5.5854
Au 19.5253 8.94754 5.57296
Pt 19.6006 12.9012 9.33725
Au 23.4576 8.80044 9.52085
Pt 21.5201 10.8765 9.44018
Au 19.5093 11.0564 11.424
Pt 19.5035 12.9611 13.4513
Au 21.4448 11.0154 13.54
Pt 21.5527 12.8807 11.4117
Au 19.4943 10.9952 15.5141
Pt 19.3956 13.0679 17.5113
Au 21.349 11.0922 17.6065
Pt 21.4685 12.9757 15.5281
Au 19.3054 11.2038 19.6032
Pt 19.2599 13.1228 21.7343
Au 21.1498 11.1814 21.834
Pt 21.2708 13.1071 19.6469
Au 20.9391 10.7655 24.9859
Pt 19.2413 13.1647 25.1383
Au 24.5191 13.165 23.8762
Pt 21.4181 13.089 23.6421
Pt 17.776 18.8343 5.58334
Au 19.7481 16.8424 5.40112
Au 19.593 16.7576 9.32151
Pt 19.7139 18.7354 7.43648
Au 21.5678 14.8221 9.41779
Pt 21.6279 16.7543 7.40742
Au 19.5513 14.8244 11.3977
Pt 19.5289 16.7386 13.4041
Au 21.533 14.8279 13.4645
Pt 21.6122 16.7322 11.4022
Au 19.479 14.9049 15.4565
Pt 19.4462 16.7919 17.4681
Au 21.4675 14.885 17.5344
Pt 21.5561 16.7386 15.4909
Au 19.3137 15.0197 19.5676
Pt 19.2807 17.0815 21.5641
Au 21.2181 15.073 21.6185
Pt 21.4109 16.8588 19.517
Au 19.1106 15.1667 23.4883
Pt 21.1627 17.1741 23.4391
Au 19.1731 17.1266 25.3891
Pt 21.2751 18.9377 21.3532
Pt 19.7258 22.577 7.53666
Au 25.3473 22.5174 9.6484
Au 19.7724 20.6542 5.53932
Pt 19.6113 20.6817 9.43665
Au 21.6151 18.6754 9.42637
Pt 21.5782 22.5383 9.56116
Au 19.5542 18.6786 11.3939
Pt 19.4989 22.6998 15.3048
Au 21.5469 18.6301 13.4343
Pt 21.5085 20.6566 15.3646
Au 19.4975 18.6479 15.3985
Pt 17.567 24.6617 15.2516
Au 21.4596 18.7347 17.4659
Pt 23.4111 22.556 15.3718
Au 19.386 18.8211 19.4103
Pt 19.141 20.8624 21.3177
Au 21.3615 21.0859 19.631
Pt 23.3838 20.6986 17.3974
Au 19.413 19.3173 23.595
Pt 20.1092 23.4864 21.3959
Au 18.9031 22.6857 23.5301
Pt 21.4595 24.3028 19.2722
Au 23.5181 22.5338 7.63915
Pt 21.5555 24.4969 11.4507
Au 21.6012 24.4679 7.66923
Au 19.508 20.6739 13.3892
Pt 19.5789 24.5459 13.3271
Au 21.5751 26.4601 13.4327
Pt 21.4893 22.589 13.4056
Au 17.7093 26.6277 13.2991
Pt 19.4784 24.5586 17.2665
Au 19.4566 20.7196 17.3264
Pt 19.5886 26.3376 15.29
Au 21.4063 26.3951 17.3761
Pt 17.4219 24.6358 19.1585
Au 25.1365 24.5946 15.3809
Pt 21.4277 22.6051 17.2727
Au 19.5537 26.1236 19.5614
Pt 21.2703 7.14464 13.5214
Pt 23.6618 6.90835 16.8927
Pt 23.2531 9.06161 13.446
Pt 21.2567 7.09986 9.61323
Au 22.0779 4.56051 13.8206
Pt 23.3652 10.8953 11.512
Au 25.2009 8.83953 11.6553
Pt 23.0858 7.04522 11.6587
Au 21.7189 8.78539 15.7102
Pt 23.4172 9.36759 17.8469
Au 25.9381 8.15307 17.7219
Pt 24.8216 8.89182 15.4919
Au 24.0418 7.24966 19.5298
Pt 23.389 9.20487 21.3815
Pt 25.2994 9.75534 19.6824
Pt 21.5912 12.8279 7.51262
Au 21.5406 8.84077 7.47355
Pt 23.4853 12.8303 9.50142
Au 23.5238 10.8983 7.57301
Pt 23.4653 14.7306 7.64552
Au 25.3363 10.8549 9.69794
Pt 23.5051 12.891 13.4694
Au 25.4468 10.8832 13.5269
Pt 25.293 12.8078 11.5219
Au 23.4174 11.0659 15.5678
Pt 23.4854 12.9405 17.5746
Au 25.6299 11.0565 17.3961
Pt 25.3579 12.8928 15.4406
Au 23.1899 11.2628 19.7318
Pt 23.1696 13.1361 21.637
Au 25.2265 11.3766 21.8138
Pt 25.2268 12.9376 19.6353
Au 23.2263 10.8087 23.5801
Pt 21.0578 15.1344 25.1244
Pt 23.0807 15.2803 23.454
Pt 21.5982 20.6653 7.56778
Au 17.8504 22.6334 5.55854
Au 21.5078 10.9301 5.62336
Pt 23.5669 16.719 9.42542
Au 25.4688 14.7413 9.52742
Pt 23.5175 20.597 9.56468
Au 23.5651 14.8088 11.4803
Pt 23.5758 16.6864 13.495
Au 25.6847 14.782 13.4485
Pt 25.4016 16.7258 11.495
Au 23.5582 14.7972 15.5131
Pt 23.5585 16.7312 17.4839
Au 25.6191 14.7042 17.5716
Pt 25.4492 16.6951 15.4893
Au 23.4104 14.9148 19.5633
Pt 23.2436 16.967 21.5045
Au 25.212 14.9403 21.6674
Pt 25.2348 16.8431 19.5501
Au 25.2278 18.7607 21.4677
Pt 21.2664 21.2557 22.6639
Au 23.0812 19.0559 23.3279
Pt 23.4434 20.7527 21.2438
Au 23.5088 24.5013 9.62666
Pt 21.5469 20.6405 11.4577
Au 23.559 18.7162 7.49493
Au 23.5755 18.6655 11.4829
Pt 23.5014 20.6338 13.4427
Au 25.4601 18.6467 9.51732
Pt 23.4958 22.5266 11.5416
Au 23.5069 18.6642 15.4625
Pt 25.2754 18.8062 17.482
Au 27.0958 16.9394 17.6047
Pt 25.3815 18.6638 13.5122
Au 23.3577 18.8178 19.4454
Pt 23.3104 24.4632 17.2873
Au 25.4744 20.6897 19.3744
Pt 23.5239 22.6105 19.1732
Au 22.6979 23.2901 21.5842
Au 19.7052 26.482 11.3899
Pt 23.3873 24.4297 13.4008
Au 25.6227 20.5825 11.5632
Au 25.4856 22.6201 13.4739
Pt 21.5368 24.5299 15.3442
Au 27.1282 18.7358 15.535
Pt 25.3194 20.6879 15.4356
Au 25.4543 22.6344 17.2918
