561
Atoms. Timestep: 20110
Pt 7.03413 7.34012 14.8021
Au 5.28572 7.15361 12.8136
Pt 7.09846 11.0387 10.768
Au 4.91728 9.21251 14.7099
Pt 5.13435 11.0868 12.6728
Pt 5.09949 11.0586 16.7481
Au 3.47788 13.3499 8.91966
Pt 5.36209 15.2626 8.83954
Au 3.21019 13.2264 12.6211
Pt 3.56901 15.2221 10.8357
Au 3.29499 15.0324 18.7393
Pt 3.47156 15.043 14.7956
Au 5.17549 7.35071 16.752
Pt 5.17564 14.9369 16.8498
Pt 7.02425 10.973 18.8217
Au 5.33698 13.311 6.92533
Au 2.8871 17.7842 10.1983
Pt 6.89343 17.8098 6.55256
Au 3.19449 17.0008 12.8919
Pt 5.35628 17.1093 10.9201
Au 3.2071 16.984 16.7596
Pt 5.21201 16.9991 14.8657
Au 7.17218 16.5643 24.673
Pt 5.17821 16.9095 18.8335
Au 5.05053 14.9292 20.8919
Pt 7.11072 14.7495 22.7115
Au 4.74647 17.8619 8.19535
Au 2.9445 19.6786 12.1618
Pt 4.89765 19.6741 10.3061
Au 3.44154 18.9594 18.7187
Pt 5.34161 18.8866 16.8335
Au 5.19612 18.8226 20.8625
Pt 5.45018 20.7771 18.8231
Au 3.37193 19.0877 14.8547
Au 3.60741 20.9918 16.8467
Pt 5.48525 20.9052 14.8931
Pt 9.07412 7.33888 12.8663
Pt 7.28137 7.20313 10.9773
Pt 7.05151 9.1423 16.7928
Pt 9.51396 6.31286 15.2966
Pt 9.57198 8.21255 17.4173
Pt 5.24547 13.0804 10.8246
Au 7.03736 8.9927 8.77984
Pt 9.17912 9.14397 6.99363
Au 5.15633 9.08037 10.8381
Pt 7.05782 9.19319 12.8101
Au 7.38421 5.34761 13.1112
Pt 9.01551 9.13941 10.7769
Au 7.67969 6.26572 17.2812
Pt 7.01613 11.0334 14.8047
Au 9.00422 9.11556 14.862
Pt 9.03004 11.0261 12.7982
Au 7.43511 8.11281 19.3716
Pt 9.58486 6.38161 19.3247
Au 11.4149 4.43308 19.2976
Pt 9.52185 9.95218 19.5361
Pt 11.5275 9.94019 21.3997
Pt 9.06052 13.0817 6.85713
Au 11.0734 9.11564 5.02668
Au 5.13637 11.149 8.84645
Pt 7.12739 13.1038 8.86008
Au 8.99303 11.0845 8.78998
Pt 11.1767 14.9482 6.8854
Au 4.92525 12.8254 14.7352
Pt 5.25817 15.0315 12.8489
Au 7.07183 12.9503 12.8395
Pt 9.03764 12.9819 10.8402
Au 3.19174 13.119 16.7754
Pt 6.93642 12.9332 16.8651
Au 9.00427 10.9906 16.9329
Pt 8.98026 12.9001 14.8927
Au 4.90055 12.758 18.9337
Pt 6.95086 12.8432 20.8024
Au 9.58837 11.9813 21.4079
Pt 8.92111 12.8545 18.8815
Au 5.02568 9.26019 18.6672
Pt 7.80206 12.1406 23.2707
Au 9.62433 11.8806 25.3214
Pt 11.6318 11.8526 23.4209
Pt 7.30719 15.1837 6.93569
Au 7.07791 11.1244 6.81497
Au 9.16562 14.9778 8.85354
Pt 7.30698 17.0695 8.99269
Au 11.2448 16.8646 8.91075
Pt 9.3307 17.0281 6.98252
Au 7.16327 15.0196 10.8632
Pt 7.19515 16.9197 12.9211
Au 9.11525 14.9047 12.9095
Pt 9.20088 16.898 10.9045
Au 7.03908 14.8865 14.8892
Pt 7.09735 16.8473 16.888
Au 9.01193 14.8259 16.9307
Pt 9.1068 16.7844 14.9588
Au 6.93181 14.8248 18.9186
Pt 7.0515 16.8073 20.9243
Au 8.99731 14.7491 20.8702
Pt 9.01928 16.7264 18.9491
Au 7.73823 13.9434 25.252
Pt 9.69989 13.9551 23.4399
Au 9.74101 15.8171 25.5618
Pt 9.09903 16.6416 22.8854
Au 8.68203 17.7817 4.52201
Au 8.61584 19.9108 6.30257
Pt 6.81142 19.7245 8.41597
Au 9.3155 18.9851 8.94088
Pt 8.85853 21.6123 8.4853
Au 7.36333 19.0356 10.9833
Pt 5.38494 18.9348 12.9294
Au 9.27376 18.7879 12.9563
Pt 9.3574 20.9378 11.0128
Au 7.27482 18.8653 14.9048
Pt 7.37383 20.7549 16.9464
Au 9.21226 18.7203 16.9852
Pt 9.35271 22.6215 16.9783
Au 7.17655 18.7573 18.9267
Pt 7.27846 20.6424 20.86
Au 9.10816 18.6643 20.9543
Pt 9.17643 20.7696 19.0027
Au 7.11783 18.7268 22.9143
Au 9.15355 18.5509 24.8994
Pt 9.24233 20.4954 22.9218
Au 6.76306 21.7756 10.3227
Au 4.87563 21.5955 12.3363
Pt 7.4036 20.9525 12.9421
Au 11.2982 20.7614 13.0288
Pt 9.43275 22.8512 13.0319
Au 9.30864 20.794 14.9483
Pt 5.70011 22.6667 16.9073
Au 7.56775 24.6125 17.0152
Pt 7.50822 22.773 14.9783
Au 7.23776 22.8096 19.1129
Au 9.16825 22.6545 21.1674
Pt 9.47477 24.2841 18.9638
Pt 11.0071 7.2826 10.8731
Pt 15.0067 8.97541 8.82061
Pt 11.4525 6.21942 13.3072
Pt 13.4464 6.19334 11.3209
Pt 11.3794 6.1925 17.3217
Pt 13.4284 6.10675 15.3379
Pt 11.5036 6.25509 21.2733
Pt 13.4676 6.10615 19.4418
Pt 11.5832 8.05423 23.2162
Pt 11.0868 11.0683 6.9596
Au 11.116 7.07231 6.96945
Au 9.07215 6.99691 8.88839
Pt 10.9908 9.10449 8.87401
Au 11.2735 5.23234 9.24042
Pt 12.9848 11.0567 5.06966
Au 9.35378 5.23674 11.2404
Pt 11.0003 9.10385 12.8407
Au 13.5145 8.00418 13.3949
Pt 13.0011 9.04564 10.8756
Au 11.5389 8.07984 15.3708
Pt 11.5618 10.0019 17.4677
Au 13.4836 7.92267 17.3991
Pt 13.5748 9.95115 15.4757
Au 13.3768 4.41336 17.3649
Pt 11.561 8.06822 19.3888
Au 9.39411 7.9748 21.5205
Pt 13.5212 9.93719 19.4507
Au 7.44902 10.1084 21.4368
Pt 9.63435 10.05 23.2822
Au 15.4595 9.65891 25.4081
Pt 13.5314 9.84679 23.4355
Pt 11.0919 13.0033 5.07131
Au 14.9683 9.10295 4.8971
Au 9.18759 11.0986 5.02119
Pt 11.0423 12.9793 8.81878
Au 13.0445 10.9994 8.86465
Pt 13.0783 12.995 6.85749
Au 11.021 11.0515 10.8429
Pt 11.0313 12.9094 12.8953
Au 13.0508 10.9322 12.9061
Pt 13.0656 12.8894 10.8806
Au 11.0316 10.9803 14.8918
Pt 10.9869 12.8508 16.9007
Au 13.5772 11.921 17.4708
Pt 13.0347 12.8257 14.9102
Au 11.5528 11.942 19.4478
Pt 11.6092 13.8668 21.5434
Au 13.5614 11.8634 21.5167
Pt 13.6054 13.842 19.5557
Au 11.5175 9.83997 25.2551
Pt 11.5928 13.7383 25.3426
Au 13.4942 11.7735 25.5606
Pt 13.5973 13.7777 23.5911
Pt 11.225 17.0036 5.08341
Au 13.0321 14.8903 4.71813
Au 9.22071 15.0636 4.93803
Pt 11.2601 18.9417 7.04271
Au 13.1489 14.8398 8.87049
Pt 13.2201 16.7827 6.83563
Au 11.1221 14.8523 10.908
Pt 11.174 16.7361 12.9631
Au 13.1005 14.7706 12.9348
Pt 13.1862 16.7107 10.9521
Au 11.0606 14.8046 14.9433
Pt 11.1085 16.703 16.9824
Au 13.061 14.7159 16.9633
Pt 13.1352 16.6685 14.9795
Au 11.0335 14.7399 18.9352
Pt 11.0585 16.6259 20.9504
Au 13.6529 15.7539 21.5903
Pt 13.0801 16.6252 18.9777
Au 11.7063 15.7946 23.5968
Pt 11.7413 17.7198 25.4251
Au 13.6155 15.6474 25.7545
Pt 13.7151 17.654 23.656
Pt 10.8297 21.5316 6.58551
Au 12.8026 21.5197 4.63996
Au 10.7171 19.6847 4.47892
Pt 11.3951 20.8253 9.09975
Au 13.2896 18.7078 8.957
Pt 13.3506 20.8167 7.19817
Au 11.2616 18.7687 10.9937
Pt 11.3477 22.6711 15.0658
Au 13.227 18.6461 13.0203
Pt 15.3924 22.6028 11.1476
Au 11.2125 18.6598 14.9916
Pt 11.2426 20.6475 16.9744
Au 13.1605 18.6047 16.9896
Pt 13.2537 20.6509 15.0325
Au 11.1213 18.6719 19.0053
Pt 11.1379 20.623 21.0485
Au 13.129 18.5394 20.9949
Pt 13.2145 20.5145 18.97
Au 11.1219 18.5238 22.9237
Pt 11.2856 20.331 24.8087
Au 13.7852 19.5369 25.741
Pt 13.193 20.4008 23.0353
Au 12.8229 23.4448 6.6446
Au 8.87507 23.6105 10.4523
Pt 11.4422 22.7086 11.1248
Au 11.0703 25.2562 10.4994
Pt 10.9052 23.3721 8.5854
Au 13.3428 20.7047 11.0564
Pt 11.5011 24.5355 13.1072
Au 13.3889 22.6447 13.1186
Pt 13.5173 24.5283 11.2187
Au 9.52694 24.7318 15.0619
Pt 11.3817 24.4382 17.0728
Au 13.3034 22.5537 17.0346
Pt 13.3676 24.468 15.1029
Au 11.2937 22.4587 19.0095
Pt 11.4142 24.1631 20.9777
Au 13.2668 22.3231 21.0173
Pt 13.3157 24.3026 19.0756
Au 11.1777 22.5098 23.1497
Au 13.2688 22.2721 25.0498
Pt 13.4141 24.0423 22.9566
Pt 13.0129 9.07164 6.88652
Pt 15.554 6.3189 9.54216
Pt 17.3496 6.50187 7.64693
Pt 15.4789 6.1148 13.4083
Pt 17.5132 6.17468 11.4522
Pt 15.4763 6.03175 17.4254
Pt 17.4643 6.04416 15.4438
Pt 15.3949 6.06347 21.2877
Pt 17.4035 6.0244 19.4107
Pt 15.4423 7.87487 23.3025
Pt 19.2808 7.78089 23.2177
Pt 16.963 11.0259 5.02086
Au 14.8381 6.98606 6.81985
Au 13.7801 4.89103 8.36571
Pt 12.9802 7.28665 8.90781
Au 17.5501 8.20482 9.51129
Pt 16.9119 8.98087 6.86499
Au 15.5177 8.07107 11.49
Pt 15.5744 9.95459 13.5065
Au 17.5052 7.94009 13.4791
Pt 17.5807 10.0041 11.523
Au 15.4953 7.90833 15.4349
Pt 15.516 9.87923 17.4598
Au 17.4896 7.87958 17.4469
Pt 17.5356 9.86725 15.5046
Au 15.4627 7.94624 19.3902
Pt 13.499 8.04326 21.3488
Au 17.3198 5.85009 23.1549
Pt 17.3789 7.91705 21.3588
Au 13.4482 6.06514 23.1722
Pt 15.4763 9.87367 21.4752
Au 17.4631 7.72583 25.1881
Pt 17.4305 9.78023 23.4049
Pt 15.0035 12.8536 4.96052
Au 17.1445 14.6561 4.69812
Au 15.0144 10.9647 6.86728
Pt 15.069 12.8888 8.81605
Au 17.0326 10.8959 8.88969
Pt 17.0556 12.8598 6.87197
Au 15.0442 10.905 10.8864
Pt 15.0643 12.7931 12.9093
Au 17.6125 11.8877 13.5179
Pt 17.0724 12.776 10.8975
Au 15.5925 11.8852 15.4968
Pt 15.6214 13.8282 17.5361
Au 17.5738 11.844 17.5053
Pt 17.6512 13.8017 15.5453
Au 15.5477 11.8727 19.5032
Pt 15.5781 13.7556 21.6322
Au 17.5225 11.7993 21.5422
Pt 17.6076 13.738 19.5614
Au 15.5244 11.7573 23.6063
Pt 15.542 13.668 25.4727
Au 17.5016 11.6481 25.6283
Pt 17.5624 13.6748 23.6643
Pt 13.2177 18.8959 5.20899
Au 15.1715 16.8178 4.70079
Au 15.1289 14.852 6.71438
Pt 15.1669 16.6877 8.85646
Au 17.0819 14.7605 8.88698
Pt 17.1306 16.6882 6.75014
Au 15.1145 14.7547 10.9172
Pt 15.1469 16.6416 12.9889
Au 17.1064 14.6594 12.9621
Pt 17.1526 16.605 10.9966
Au 15.0878 14.6853 14.9601
Pt 15.1016 16.593 16.9768
Au 17.6664 15.6913 17.5636
Pt 17.1294 16.5648 14.9785
Au 15.6541 15.7001 19.5863
Pt 15.7032 17.5885 21.6432
Au 17.6352 15.6068 21.6488
Pt 17.7156 17.5709 19.6065
Au 15.6278 15.6449 23.7028
Pt 15.6869 17.517 25.567
Au 17.635 15.514 25.8003
Pt 17.6871 17.4604 23.728
Pt 15.327 20.9397 5.41828
Au 15.1786 19.2308 3.50617
Au 15.2557 18.6869 6.92101
Pt 17.3415 22.6339 9.18353
Au 17.176 18.5407 9.02459
Pt 17.2852 20.6521 7.22967
Au 15.228 18.5923 11.0275
Pt 15.2785 20.6168 13.0627
Au 17.1821 18.5516 13.0295
Pt 17.2498 20.5729 11.0614
Au 15.1765 18.5913 15.0113
Pt 15.2223 20.5246 17.0167
Au 17.1653 18.4706 17.0052
Pt 17.2325 20.4958 15.0503
Au 15.156 18.4773 18.9956
Pt 15.2133 20.3372 20.987
Au 17.7576 19.4344 21.6273
Pt 17.2052 20.3646 19.0033
Au 15.7731 19.4379 23.6873
Pt 15.8431 21.3715 25.4718
Au 17.7561 19.3827 25.8127
Pt 17.8211 21.3264 23.6018
Pt 15.4031 22.7404 7.33041
Au 17.4218 22.6619 5.44859
Au 15.3159 20.6983 9.08768
Pt 13.4225 22.7834 9.20957
Au 19.3524 24.5262 9.31465
Pt 19.2947 22.5157 7.37614
Au 15.4587 24.6574 9.282
Pt 15.4033 24.4483 13.1516
Au 17.3108 22.4927 13.1309
Pt 17.3855 24.3818 11.2364
Au 15.3294 22.5576 15.1049
Pt 15.3491 24.3471 17.1159
Au 17.2954 22.4296 17.0763
Pt 17.3931 24.3198 15.1279
Au 15.2781 22.4263 19.0369
Pt 15.323 24.176 21.0741
Au 17.2747 22.2326 20.9999
Pt 17.3492 24.204 19.1044
Au 15.2744 22.148 22.9518
Pt 15.4096 23.9077 24.7441
Au 17.8428 23.1849 25.5559
Pt 17.3259 23.9715 22.9719
Pt 19.3874 6.34168 9.52737
Pt 19.4671 6.07643 13.4573
Pt 21.3687 6.2091 11.5624
Pt 19.4052 5.98118 17.4463
Pt 21.3395 6.01514 15.4766
Pt 19.2727 6.04104 21.2671
Pt 19.4669 7.85438 19.4438
Pt 18.9364 10.8044 6.95746
Au 19.5936 8.03764 7.36342
Pt 19.6594 9.9151 9.46469
Au 21.633 7.85951 9.37359
Pt 21.5416 10.0402 7.57733
Au 19.5228 8.0435 11.4973
Pt 19.5429 9.89555 13.532
Au 21.4704 7.96195 13.4992
Pt 21.6477 9.78397 11.4772
Au 19.4619 7.88485 15.4884
Pt 19.522 9.82238 17.5191
Au 21.2887 5.78076 19.3614
Pt 21.3847 7.864 17.5124
Au 17.5197 9.85893 19.4704
Pt 19.5026 9.71808 21.451
Au 21.5105 7.57469 21.5976
Pt 21.5209 9.62659 19.5538
Au 21.1355 7.749 24.977
Pt 19.3573 9.66395 25.2036
Pt 21.3822 9.71495 23.3494
Pt 19.0891 12.7336 5.06409
Au 20.9042 10.7519 5.04165
Au 18.7599 9.06692 4.92168
Pt 19.059 12.733 8.87688
Au 21.6829 11.8435 9.55014
Pt 20.9698 12.6787 7.00295
Au 19.6563 11.8311 11.4999
Pt 19.686 13.7783 13.5427
Au 21.6311 11.8051 13.5411
Pt 21.7317 13.7475 11.5503
Au 19.5856 11.8412 15.5422
Pt 19.6458 13.7364 17.5588
Au 21.6007 11.7491 17.5678
Pt 21.7313 13.6822 15.5809
Au 19.5937 11.7602 19.5374
Pt 19.5781 13.6531 21.5977
Au 21.5652 11.6572 21.5263
Pt 21.6611 13.6302 19.5526
Au 19.4724 11.6718 23.523
Pt 19.5798 13.5031 25.4643
Au 21.4639 11.4772 25.4818
Pt 21.5483 13.489 23.5551
Pt 17.2378 18.8908 5.15316
Au 19.1481 16.7683 4.79489
Au 19.0128 14.7549 6.86147
Pt 19.1278 16.5819 8.96771
Au 21.0888 14.5913 8.96393
Pt 21.0636 16.5884 7.05446
Au 19.1071 14.6187 10.9591
Pt 19.1634 16.5165 12.9946
Au 21.7845 15.6089 13.6047
Pt 21.1867 16.4516 10.99
Au 19.7278 15.6521 15.5767
Pt 19.7457 17.5406 17.6062
Au 21.7733 15.5588 17.5927
Pt 21.8219 17.4888 15.6216
Au 19.6574 15.5883 19.5812
Pt 19.6874 17.4489 21.6434
Au 21.6215 15.4863 21.5687
Pt 21.7525 17.4227 19.6119
Au 19.6353 15.5025 23.6963
Pt 19.6974 17.4161 25.5453
Au 21.5922 15.3964 25.751
Pt 21.6671 17.3886 23.6214
Pt 19.2437 20.6338 5.38631
Au 21.2234 22.4352 5.43997
Au 19.1239 18.5413 7.05658
Pt 19.218 20.4859 9.1328
Au 21.1665 18.4464 9.09551
Pt 21.1541 20.4665 7.28059
Au 19.1888 18.4961 11.0621
Pt 19.2175 20.4417 13.0477
Au 21.227 18.3793 13.0464
Pt 21.3132 20.3878 11.0909
Au 19.1856 18.4239 15.0214
Pt 19.2002 20.3333 17.0432
Au 21.8003 19.3691 17.6381
Pt 21.2083 20.2482 15.0664
Au 19.7884 19.4399 19.6457
Pt 19.8527 21.3584 21.688
Au 21.7818 19.3132 21.6767
Pt 21.8641 21.3241 19.7066
Au 19.7109 19.3128 23.6563
Pt 19.7108 21.2243 25.3953
Au 21.6943 19.2861 25.6311
Pt 21.7221 21.1673 23.6029
Au 21.3608 24.221 7.49081
Pt 21.2735 22.3039 9.27704
Au 23.2408 22.286 7.37562
Au 19.2744 22.4177 11.1153
Pt 19.3993 24.2241 13.1345
Au 21.2962 22.2235 13.0803
Pt 21.335 24.0773 11.2096
Au 19.3008 22.3642 15.0958
Pt 19.3633 24.1725 17.1311
Au 21.2331 22.1674 17.1089
Pt 21.3705 24.0847 15.1345
Au 19.2667 22.2259 19.0686
Pt 19.3183 23.9685 21.0681
Au 21.918 23.249 21.7413
Pt 21.2981 23.9355 19.1215
Au 19.9004 23.3119 23.6855
Pt 23.2357 6.13244 13.5977
Pt 23.1839 6.08253 17.3559
Pt 23.3665 7.8634 15.5128
Pt 23.5182 9.87888 9.6103
Au 23.5946 7.72732 11.4253
Pt 23.5213 9.79546 13.5551
Au 25.3471 7.79852 13.6132
Pt 25.2925 9.77921 11.6698
Au 21.5224 9.83854 15.5516
Pt 23.4464 9.6924 17.5403
Au 25.3175 7.71347 17.4287
Pt 25.3469 9.67284 15.5731
Au 23.4529 7.58445 19.55
Pt 23.3873 9.67303 21.4284
Pt 25.2128 9.61261 19.4147
Pt 20.9927 14.7246 5.16805
Au 23.6492 11.8336 7.54743
Pt 23.7029 13.7138 9.56835
Au 25.5342 11.6873 9.67943
Pt 22.9573 14.566 7.05395
Au 23.6357 11.7759 11.6151
Pt 23.7958 13.6504 13.6152
Au 25.7778 11.6141 13.604
Pt 25.5787 13.587 11.6286
Au 23.6909 11.7152 15.5828
Pt 23.7808 13.606 17.5863
Au 25.7421 11.5472 17.5763
Pt 25.6405 13.5438 15.6105
Au 23.5788 11.6269 19.5103
Pt 23.5961 13.4775 21.5507
Au 25.5021 11.4658 21.512
Pt 25.5441 13.4435 19.6173
Au 23.5858 11.3826 23.5944
Pt 23.4247 13.4669 25.3173
Pt 25.3246 13.4535 23.4603
Pt 21.105 18.61 5.32449
Au 22.986 16.5907 5.22686
Au 22.7606 12.7602 5.06377
Pt 23.156 16.4249 8.96899
Au 25.6905 15.5864 9.68253
Pt 23.0674 18.4482 7.20712
Au 23.7993 15.5735 11.6318
Pt 23.8715 17.4734 13.6399
Au 25.9544 15.4931 13.6259
Pt 25.6606 17.481 11.6743
Au 23.863 15.5242 15.6151
Pt 23.8786 17.3812 17.6353
Au 25.939 15.4283 17.6568
Pt 25.7458 17.3829 15.6557
Au 23.7901 15.4615 19.6204
Pt 23.7023 17.3643 21.6254
Au 25.8142 15.3552 21.6122
Pt 25.6646 17.3487 19.6828
Au 23.5255 15.3815 23.5072
Pt 23.5386 17.2282 25.3885
Au 25.3929 15.289 25.416
Pt 25.4311 17.2038 23.5339
Au 23.061 20.4071 5.4047
Pt 23.2156 20.3078 9.1371
Au 25.1474 18.2948 9.06177
Au 23.1917 18.2932 11.0366
Pt 23.285 20.2518 13.0601
Au 25.9551 19.3437 13.6831
Pt 25.056 20.1212 11.1472
Au 23.8806 19.3093 15.6624
Pt 23.8077 21.2227 17.6943
Au 25.9822 19.2705 17.6974
Pt 25.6971 21.2084 15.7247
Au 23.7928 19.2534 19.635
Pt 23.7391 21.1369 21.6166
Au 25.7359 19.2322 21.6601
Pt 25.5634 21.1312 19.6286
Au 23.8092 19.3712 23.7397
Au 23.4831 22.3791 10.9754
Pt 23.2662 23.8901 13.2247
Au 25.3225 22.0811 13.1304
Au 23.1992 22.0233 15.1217
Pt 23.235 23.8715 17.1547
Au 25.7921 23.04 17.7103
Pt 25.0221 23.7488 15.2529
Au 23.893 23.2438 19.7472
