561
Atoms. Timestep: 20650
Pt 17.4273 7.52596 16.8992
Au 24.4758 10.4808 21.459
Pt 19.7637 20.5131 14.8646
Au 20.2172 10.3191 24.1295
Pt 21.8599 14.045 8.58109
Pt 11.4818 16.8556 11.8798
Au 12.0458 24.8054 19.8719
Pt 3.74437 14.4549 17.0059
Au 16.2489 15.1975 4.15517
Pt 14.8693 14.8747 14.9258
Au 22.7063 17.9438 7.89149
Pt 17.6577 21.5212 16.9255
Au 21.6693 6.1286 8.81617
Pt 20.6918 9.51986 9.63223
Pt 19.8862 6.44329 16.0178
Au 9.4172 18.6256 22.98
Au 24.4385 12.874 8.41764
Pt 13.1 14.8152 9.93832
Au 7.28724 23.2345 19.7112
Pt 18.4717 20.836 21.785
Au 18.4425 19.0503 25.1
Pt 16.4666 18.9029 17.7894
Au 3.01107 14.1305 13.1688
Pt 11.5446 23.3416 12.5213
Au 16.5028 13.7208 26.4375
Pt 10.1282 15.6209 5.73422
Au 4.27004 17.7035 10.443
Au 12.0801 7.08422 7.70447
Pt 7.58247 10.5265 18.9526
Au 19.3646 25.0612 21.4906
Pt 22.5545 11.8446 20.2213
Au 17.2473 6.07308 7.40267
Pt 15.3188 17.4205 15.8717
Au 24.2116 9.95213 11.7767
Au 18.3546 21.2684 26.4953
Pt 11.9708 22.1837 20.1752
Pt 9.02234 18.1993 15.7746
Pt 13.7322 9.44458 17.245
Pt 13.9989 20.6362 19.4437
Pt 11.6214 20.9247 13.638
Pt 13.7058 10.8636 23.4565
Pt 12.4755 13.5585 20.2515
Au 20.5663 3.80521 16.7252
Pt 9.49112 13.8115 15.1232
Au 8.23781 16.8382 18.3752
Pt 16.5763 21.0012 19.444
Au 14.6172 23.0872 20.7501
Pt 22.36 20.6724 11.8904
Au 11.3525 4.54242 14.7889
Pt 9.16244 10.2921 21.1276
Au 21.2321 4.84835 14.1508
Pt 10.6999 10.4194 10.256
Au 9.31643 24.6588 12.1565
Pt 19.9774 7.25388 10.651
Au 7.83805 14.2214 5.27446
Pt 8.75374 9.28882 12.0718
Pt 20.0237 22.5091 16.6558
Pt 21.1352 13.0254 17.9773
Au 17.7209 22.6682 11.6753
Au 22.3228 15.2682 23.7968
Pt 8.93985 19.387 18.3372
Au 4.74792 19.3258 12.6562
Pt 18.2274 18.917 19.8762
Au 5.94916 15.1128 6.87643
Pt 15.5505 15.892 24.9263
Au 17.6041 25.7862 19.4498
Pt 19.9919 9.9671 14.0617
Au 14.4596 4.15099 11.4051
Pt 9.5771 11.051 7.86358
Au 18.8287 25.0934 12.658
Pt 16.8771 10.1638 16.4882
Au 26.5007 17.746 16.529
Pt 11.9743 17.7819 22.3545
Au 14.0542 4.59221 19.4043
Pt 22.0412 13.5407 15.5407
Au 20.5075 12.8777 6.19301
Pt 14.2482 19.3045 10.0052
Au 18.0649 23.3979 23.3156
Pt 10.2649 23.1851 14.824
Pt 17.5073 13.046 9.53501
Au 25.3003 9.76598 18.8524
Au 13.3013 27.3586 12.6215
Pt 22.7488 9.19904 19.8091
Au 22.7514 26.0047 15.3558
Pt 17.9376 13.3794 12.1476
Au 13.7205 19.4958 26.713
Pt 17.3797 16.3304 14.6978
Au 16.6823 4.86971 10.0849
Pt 17.8805 5.65488 14.4639
Au 23.021 7.86037 10.3492
Pt 13.4315 11.046 9.48655
Au 15.9296 26.5669 12.547
Pt 14.4255 16.8076 8.35818
Au 10.9678 11.0373 5.42922
Pt 6.92644 15.1245 20.0163
Au 14.8468 6.73137 20.9823
Pt 23.4581 11.4933 17.8954
Au 17.5863 9.34988 24.3053
Pt 13.6135 18.953 17.3036
Au 5.67567 19.964 10.1073
Pt 22.7062 19.5907 18.8297
Au 2.48246 15.9868 15.2444
Au 15.2823 23.1348 23.498
Pt 8.25363 20.011 11.0664
Au 14.3592 26.0328 10.3696
Pt 19.5667 23.8792 19.0562
Au 26.5687 20.4517 16.2263
Pt 21.6386 10.9245 15.8939
Au 9.7212 6.51202 18.9389
Pt 21.9097 20.6472 16.5586
Au 10.0992 5.89766 9.41
Pt 7.71624 22.127 14.6215
Au 12.1948 6.61099 20.0467
Pt 15.376 6.17923 13.5467
Au 18.9695 14.6301 25.7422
Pt 21.4459 17.0836 21.7026
Au 19.7212 7.92119 22.8902
Pt 14.6226 16.6527 18.3717
Au 26.693 14.2041 12.2845
Au 17.1367 8.88621 7.15029
Pt 6.81474 17.7661 11.4028
Au 15.8614 17.2885 6.11271
Au 17.0296 7.04701 22.8556
Pt 20.4791 15.0275 20.3813
Au 3.50839 16.8284 12.8849
Pt 10.5999 11.6015 14.6583
Au 8.45522 22.9209 17.0058
Pt 11.1514 7.29972 14.0713
Au 3.48963 15.0895 10.6245
Pt 16.4326 17.752 10.511
Au 6.68188 20.5165 19.3018
Au 7.16957 13.6143 22.5712
Pt 12.6773 23.6461 10.0487
Pt 11.7264 9.65959 7.96337
Pt 15.6503 12.5736 16.0577
Pt 13.0323 21.4172 11.3089
Pt 14.9785 6.8836 11.0753
Pt 20.0525 7.09953 13.309
Pt 24.4647 17.4956 14.411
Pt 17.5791 23.0698 20.7071
Pt 13.1135 11.8558 16.1773
Pt 18.9751 14.8252 18.373
Pt 14.8885 12.9228 10.6599
Au 8.28808 11.4981 5.5204
Au 12.4786 17.3371 5.97748
Pt 19.512 9.13194 16.6236
Au 7.45963 21.0956 8.50162
Pt 17.1563 18.7383 22.504
Au 7.79204 18.4116 20.7913
Pt 6.6122 13.1113 10.6597
Au 3.80304 9.97835 17.0974
Pt 12.7099 24.0675 15.3208
Au 7.75128 8.09852 20.15
Pt 20.8242 10.4561 18.5031
Au 19.5786 7.57381 7.84001
Pt 15.8202 8.7182 18.7104
Au 6.53723 10.734 21.728
Pt 14.6325 13.3102 24.5039
Au 26.4268 15.0014 16.9504
Pt 11.7416 12.7181 8.47812
Au 15.3718 23.8082 15.9208
Pt 17.9252 16.6802 24.0355
Au 24.0307 15.6067 7.76648
Pt 8.00034 10.852 9.93138
Pt 9.44981 21.8226 19.1835
Au 5.04486 9.88752 14.3578
Au 4.28543 12.2074 15.8029
Pt 21.65 17.9958 16.8901
Au 13.7515 21.5963 5.96396
Pt 12.906 12.1189 13.5438
Au 11.2314 19.6701 6.66444
Pt 9.31997 13.0991 9.73146
Au 7.24132 9.76098 7.51338
Pt 11.4549 7.75644 16.9895
Au 14.7345 25.6136 19.6254
Pt 8.79604 11.6105 16.7538
Au 25.2305 12.6393 19.7891
Pt 9.30168 11.9462 12.2201
Au 18.5655 16.3275 5.63379
Pt 6.38263 10.6477 16.6083
Au 25.5837 14.9926 9.94524
Pt 24.3571 21.8439 16.0444
Au 18.7227 20.6782 7.9458
Pt 18.3355 17.5228 12.4331
Au 10.4586 21.2642 23.021
Pt 18.0199 4.76893 16.91
Pt 11.8613 12.6419 11.1589
Au 12.2628 23.3277 7.38757
Au 22.5851 5.71223 16.42
Pt 7.72664 11.0461 14.2911
Au 24.1847 13.3833 22.1821
Pt 16.3683 19.0917 8.07971
Au 10.4104 25.4926 16.5158
Pt 20.1063 22.1016 12.7289
Au 14.0336 14.631 26.9321
Pt 16.772 11.1449 11.346
Au 22.1098 20.5575 23.018
Pt 16.3085 11.547 23.0999
Au 5.31861 10.9208 9.27198
Pt 10.4285 22.0378 10.3609
Au 12.7596 8.85702 5.51661
Pt 23.595 9.65983 14.3631
Au 15.2873 19.6165 4.79136
Pt 11.0278 17.9659 17.7073
Au 22.6785 18.001 23.8612
Pt 5.69508 15.2489 12.1405
Au 23.0517 13.6789 6.20578
Pt 16.1373 15.43 12.4476
Pt 18.8823 18.5368 9.92761
Au 6.30887 8.08937 12.7438
Au 6.98421 8.12387 15.4908
Pt 21.6405 15.4981 17.6155
Au 11.734 5.13329 17.5764
Pt 21.3465 7.71046 17.974
Au 13.8547 14.0083 3.53441
Pt 10.5811 15.3489 9.81437
Au 11.9059 14.3388 25.3729
Pt 17.7862 14.3472 20.9766
Au 20.5722 22.5134 21.5629
Pt 22.2433 21.8341 14.2631
Au 4.92793 10.5439 19.5299
Pt 11.1266 23.1166 17.5051
Au 13.0643 25.7178 17.3902
Pt 23.6149 18.2791 11.9217
Au 23.8853 6.98797 18.5931
Pt 15.7667 11.302 8.21137
Au 18.9274 3.83629 19.2643
Pt 22.8693 16.2041 10.1536
Au 13.8601 3.69198 16.8258
Pt 22.0077 14.2862 13.0084
Au 4.25827 15.1753 19.4988
Au 12.4173 25.769 8.50353
Pt 13.6686 24.7599 12.6552
Au 17.9025 20.181 12.7646
Pt 16.1084 16.2163 22.1258
Au 24.6234 7.28892 15.7133
Pt 24.1304 19.1883 16.4733
Au 14.0821 3.82225 14.1358
Pt 16.3395 21.5196 14.5973
Au 20.4297 16.9321 25.1824
Pt 18.569 9.12117 11.8301
Au 26.158 21.9341 13.9391
Pt 18.1686 10.074 18.9047
Au 16.4161 25.1424 21.8838
Pt 20.0742 8.45737 20.2282
Au 1.9239 13.2874 15.487
Pt 9.52767 9.18563 14.9635
Au 12.6104 19.5352 4.353
Au 17.0471 25.1248 10.5084
Pt 15.5091 20.8408 21.8624
Pt 16.9529 20.5151 10.1506
Pt 9.94095 20.7494 15.9004
Pt 21.3145 16.7978 12.2256
Pt 17.4484 19.1062 15.3064
Pt 10.0903 11.8327 19.236
Pt 16.3123 5.98632 18.6807
Pt 13.4252 11.3416 6.76521
Pt 6.80198 13.247 15.6805
Pt 17.9172 8.32718 14.4755
Pt 8.79149 8.73085 17.4946
Pt 14.3006 11.5691 20.9512
Pt 19.1068 6.51358 18.6393
Au 22.3423 11.3027 7.52583
Au 25.5966 12.0985 10.7511
Pt 24.0593 16.5821 17.0044
Au 10.1946 13.3751 4.11528
Pt 14.8948 10.5133 14.5478
Au 23.3021 21.5982 20.7836
Pt 19.7823 17.6758 14.8328
Au 20.382 26.5045 19.2968
Pt 9.31229 17.5977 10.4524
Au 19.4075 18.7427 27.4513
Pt 16.8892 11.8927 20.5209
Au 24.9132 24.5509 16.4685
Pt 16.2245 23.5141 18.5079
Au 11.5653 25.9274 11.1115
Pt 13.4495 17.6213 24.836
Au 15.9017 26.2158 17.2535
Pt 12.6955 11.4082 18.8115
Au 24.116 23.3884 18.7575
Pt 5.40822 12.721 13.3922
Au 25.0518 20.9043 18.5414
Pt 8.68112 7.08658 13.5687
Pt 18.3334 15.5965 10.6083
Au 19.8512 10.1175 6.90819
Au 21.4717 13.2957 22.0978
Pt 15.904 15.1659 9.68804
Au 5.9353 15.858 9.42891
Pt 12.8266 20.2961 21.898
Au 12.5566 22.9151 22.7611
Pt 10.2292 17.2096 20.2756
Au 18.4201 2.17255 17.0979
Pt 13.2133 6.37386 15.3635
Au 5.83814 8.45298 18.0962
Pt 17.5795 6.62458 12.0525
Au 9.42191 24.7459 18.9609
Pt 12.1525 14.1913 14.9853
Au 12.5057 9.45972 25.229
Pt 15.6192 5.53209 16.1284
Au 16.7032 19.2965 27.4746
Pt 10.1704 15.686 16.8844
Au 13.7082 25.1994 22.1063
Pt 13.4616 9.03729 19.9241
Au 13.3332 11.4033 4.10497
Pt 7.32397 20.3789 16.5561
Pt 14.0937 10.5466 11.8859
Au 16.3592 2.9913 15.5032
Au 6.25672 21.5381 12.2894
Pt 5.88835 12.8387 18.2061
Au 20.0323 12.103 8.88695
Pt 7.79 15.8112 15.4505
Au 19.9435 26.7219 14.787
Pt 16.9523 21.0158 24.0313
Au 5.80968 23.8087 15.3034
Pt 16.5976 14.6695 7.05544
Au 19.53 5.78956 21.2133
Pt 12.821 16.389 16.3894
Au 26.6754 13.2407 14.8424
Pt 15.5128 12.8241 13.2438
Au 3.92326 12.3925 11.1379
Pt 13.4045 14.5372 12.5338
Au 25.0159 17.7179 9.57304
Pt 8.35989 15.2957 8.14624
Au 21.1207 19.586 25.4962
Pt 11.1177 19.566 11.0653
Au 22.1322 23.8017 12.0285
Pt 19.2133 21.3235 19.1931
Pt 17.5412 7.69224 20.3773
Au 22.1711 22.3769 9.79505
Au 10.1629 5.17299 12.2494
Pt 11.1762 15.2782 21.9912
Au 25.6778 8.30815 13.4548
Pt 13.1479 19.0116 12.5541
Au 19.7649 21.4826 24.1509
Pt 19.691 14.9973 23.0663
Au 8.45681 11.4017 23.6219
Pt 9.28319 21.7055 12.703
Au 14.8305 24.3126 8.31325
Pt 14.1513 15.2571 5.93794
Au 23.8209 20.1571 9.6204
Pt 15.6213 9.23842 10.0011
Au 18.249 13.6782 5.03971
Pt 15.8171 18.1174 13.1986
Au 10.1225 24.4164 9.2649
Pt 7.75793 13.8914 13.187
Au 21.2721 27.6738 16.9696
Pt 23.9634 13.9701 17.4945
Au 25.2542 18.2391 18.991
Pt 13.7885 16.0535 20.853
Pt 19.7509 11.4238 11.5666
Au 18.5889 27.0766 17.1754
Au 25.7914 19.8725 11.5636
Pt 21.6955 8.10879 15.19
Au 16.7352 3.81407 12.8217
Pt 15.3504 20.6272 12.2234
Au 4.67724 13.5228 8.72243
Pt 24.4096 12.9127 13.011
Au 18.1901 11.9312 25.2246
Pt 18.7645 16.8704 21.4398
Au 15.1627 23.1752 10.8998
Pt 24.222 11.9884 15.4192
Au 22.9375 25.8066 18.0901
Pt 12.6496 21.4783 16.0137
Au 22.3766 8.82673 22.5605
Pt 13.9169 6.88787 17.9138
Au 26.1688 10.9547 13.464
Pt 20.8801 19.7569 20.6501
Au 13.1795 11.9545 26.2463
Pt 23.3052 13.7063 10.7732
Au 14.7939 21.6237 8.62553
Pt 15.045 13.8173 21.9538
Pt 8.14518 15.2317 10.8698
Pt 6.51246 10.8082 12.0222
Pt 17.4654 7.50427 9.61263
Pt 11.8153 10.8222 21.3564
Pt 12.7455 18.31 19.823
Pt 21.5558 9.06383 12.202
Pt 17.0584 16.4324 19.4271
Pt 21.5411 18.6743 10.1845
Au 8.53078 15.9885 22.1278
Pt 18.1445 10.1807 9.28264
Au 3.94788 18.4438 15.142
Pt 12.0412 15.7197 18.8742
Au 10.711 16.655 24.4733
Pt 10.627 9.66443 23.2934
Au 22.1306 6.78149 20.8562
Pt 10.817 9.08037 19.3836
Au 16.9457 17.7275 3.69809
Pt 13.468 8.19606 12.967
Au 9.90517 23.4232 21.3444
Pt 13.6332 23.1448 18.1366
Au 20.8865 24.2362 14.3797
Pt 17.5747 11.0887 13.9328
Au 18.9713 3.217 14.5591
Pt 11.9944 15.3308 7.63143
Au 8.27167 24.9989 14.9151
Pt 15.1093 21.2035 17.0251
Pt 6.05387 15.4552 17.4128
Pt 6.08573 17.2669 13.9099
Au 7.9078 22.9046 10.4793
Au 14.9124 17.1661 27.2926
Pt 17.6898 16.8082 8.21044
Au 15.5311 12.7203 5.44339
Pt 15.8326 18.6851 24.9827
Au 21.7948 5.5354 11.4874
Pt 11.0062 10.3557 17.0734
Au 9.48451 14.1521 24.0415
Pt 13.9282 22.3316 13.7412
Au 15.395 9.98877 5.39092
Pt 9.96952 17.3498 7.68687
Au 16.9558 4.87268 20.9255
Pt 10.7618 16.4343 14.4306
Au 15.5842 10.9229 25.6334
Pt 5.05118 15.0654 14.8029
Au 17.3735 22.9249 8.86288
Pt 15.2796 11.3523 18.4218
Au 14.7864 6.37292 8.48367
Pt 11.3811 9.96539 12.6688
Au 19.9703 18.2098 7.3012
Pt 11.5424 20.4684 18.1812
Pt 21.6701 22.108 18.7956
Au 24.31 15.6763 12.4114
Au 26.4449 17.1693 11.8406
Pt 17.4835 12.7508 18.0264
Au 23.6552 18.8945 21.3454
Pt 17.6175 13.7125 14.8619
Au 21.2392 15.7814 6.60204
Pt 7.80039 12.6945 20.2211
Au 9.77874 8.74753 6.38308
Pt 14.3335 8.97941 7.79085
Au 5.09681 12.9891 20.8165
Pt 14.363 13.5478 7.9865
Au 8.11296 6.66959 11.0418
Pt 13.4456 16.8489 13.8973
Au 21.4434 5.11569 18.9143
Pt 22.9378 14.3953 19.9111
Au 19.1929 5.14989 9.24865
Pt 14.519 18.3464 22.6436
Au 3.26437 12.4005 18.5214
Pt 17.8945 12.0513 7.07774
Au 8.51925 19.6286 6.4055
Pt 14.0902 16.8749 11.202
Pt 15.4944 18.4552 20.2677
Au 9.8098 22.1461 7.58776
Au 4.21943 9.68512 11.6265
Pt 18.0128 24.3553 16.886
Au 21.4388 20.4186 8.1336
Pt 18.8939 12.3792 22.6005
Au 21.9922 24.4312 20.2456
Pt 9.81587 13.4156 6.94205
Au 15.1087 7.29355 5.96894
Pt 6.38308 17.9367 16.459
Au 20.8068 12.9483 24.7048
Pt 13.7659 14.0557 17.46
Au 8.05064 8.75787 22.9339
Pt 20.3077 19.225 12.4805
Au 15.6354 21.429 26.2463
Pt 12.2392 20.8915 8.77497
Au 5.74298 22.4065 17.5403
Pt 20.2564 17.4569 19.135
Au 22.2468 8.56282 7.75304
Pt 22.1125 18.9089 14.341
Au 11.5316 19.3978 24.6839
Pt 14.337 19.7256 14.7984
Au 22.7577 11.3455 23.4267
Pt 8.30915 13.9895 17.7768
Au 11.2676 25.847 13.8948
Au 26.7574 18.9433 13.9796
Pt 20.4436 14.0117 10.8685
Au 7.29567 18.1653 8.55562
Pt 19.9774 18.791 22.9916
Au 19.3004 4.57026 12.0269
Pt 19.4347 15.2874 13.2183
Au 24.0487 23.8383 14.0404
Pt 24.3802 14.7875 14.9691
Au 5.70324 17.6976 19.2148
Pt 9.99889 12.8016 21.8276
Au 15.5832 9.2769 21.6847
Pt 13.4325 15.5287 23.3917
Au 6.84168 24.0431 12.8199
Pt 19.9637 12.7335 13.958
Pt 12.078 17.8222 9.20359
Pt 15.2225 8.11439 15.4681
Pt 24.3011 20.1659 13.8401
Au 2.95849 11.4164 13.5354
Pt 7.42258 19.5342 13.8545
Au 11.1902 21.8411 5.25957
Pt 11.158 13.3163 17.4385
Au 9.44313 6.20171 16.0147
Pt 22.1734 11.538 13.1485
Au 7.01502 24.9846 17.477
Pt 18.4 17.1185 17.1252
Au 5.2006 21.0052 14.9445
Pt 20.7347 10.6305 21.5228
Pt 22.8744 17.0184 19.4399
Pt 20.5231 25.1467 16.9492
Au 26.795 16.0477 14.3481
Pt 19.837 20.9595 10.4029
Au 4.72348 19.7987 17.4667
Pt 23.3209 9.15004 17.0497
Au 14.9571 8.56286 24.2539
Pt 22.0545 16.2176 14.8665
Au 14.3632 26.2452 14.8776
Pt 13.8862 19.2362 7.2357
Au 26.1809 12.1623 17.3259
Pt 10.8006 7.64161 11.3937
Au 12.6139 5.65654 10.0421
Pt 9.76231 14.6111 19.8015
Au 17.9061 19.1563 5.76648
Pt 9.73063 19.7305 8.86848
Au 16.2428 3.28956 18.3697
Pt 10.4365 14.4206 12.5406
Au 24.2073 10.1191 9.08102
Pt 19.4924 19.5038 17.347
Pt 19.1544 11.8416 16.3188
Pt 8.5602 16.5854 13.0401
Au 7.37276 6.39599 17.7053
Au 10.1176 18.0799 4.70898
Pt 19.7119 14.9637 15.864
Au 23.2198 7.03517 13.2287
Pt 16.043 8.84248 12.737
Au 16.463 21.4159 6.53506
Pt 12.462 13.074 22.8916
Au 12.8157 8.30162 22.4878
Pt 17.134 14.0771 23.6724
Au 10.4472 19.8109 20.6998
Pt 18.4027 23.1104 14.5671
Au 10.9464 11.7975 24.7391
Pt 18.2159 9.91737 21.7364
Au 14.2118 17.1357 3.81073
Pt 11.807 18.7908 15.2482
Au 25.3558 15.5068 19.4351
Pt 20.4414 16.3833 9.28706
Au 12.2179 16.7179 26.8508
Pt 16.4948 15.1155 17.0531
Au 24.0197 16.1561 21.8166
Pt 19.4997 12.4155 19.9353
Au 7.7819 16.9847 5.9859
Pt 12.7514 5.72398 12.6868
Au 17.5743 16.7674 26.7356
Au 8.18283 21.1664 21.5163
Pt 16.1249 24.0091 13.3334
Au 19.8115 23.7309 10.3518
Pt 22.4674 23.4702 16.5563
Au 17.2998 25.9799 14.851
Pt 9.88885 18.8978 13.2642
Au 9.22208 8.40849 9.07567
Pt 12.2806 13.4864 5.74859
Au 10.1398 7.62815 21.5933
Pt 12.4351 9.42522 15.0144
Au 24.4397 22.2482 11.7614
Pt 22.2795 11.4355 10.4091
Au 3.74237 17.0988 17.4587
Au 13.9355 20.7608 24.2697
Pt 19.1227 14.5037 7.90919
Au 7.15791 12.6992 7.80339
Au 6.48343 8.6072 10.0647
Pt 12.9276 8.47135 10.1752
Au 25.8431 9.76744 16.0054
Pt 15.4333 14.1013 19.4276
Au 11.833 15.7199 3.78331
