561
Atoms. Timestep: 20540
Pt 12.1879 9.34672 21.6778
Au 7.76619 23.0166 12.3492
Pt 17.1977 8.30385 14.5846
Au 8.19903 11.7988 23.8727
Pt 9.62454 17.089 10.8038
Pt 7.69748 13.1114 8.84277
Au 18.2335 26.8221 13.923
Pt 9.00157 17.5934 17.3503
Au 4.15556 15.6319 10.9478
Pt 8.98916 7.84072 17.7204
Au 15.7955 23.6351 23.4194
Pt 9.96063 22.138 14.3914
Au 6.23912 15.0673 6.4171
Pt 15.9789 13.5642 24.9277
Pt 7.42479 16.8177 19.5081
Au 19.1333 16.6153 3.87139
Au 12.7207 5.53755 19.6026
Pt 10.265 16.826 14.919
Au 11.3319 11.175 4.23952
Pt 10.285 19.6691 15.5429
Au 16.1639 17.6567 26.7869
Pt 6.15267 18.4455 13.0991
Au 6.62001 6.46231 18.4818
Pt 12.4058 11.312 23.4394
Au 15.9478 14.9442 27.5035
Pt 21.0757 22.0258 19.416
Au 10.0753 24.6582 13.2206
Au 21.8106 7.62459 20.4244
Pt 13.8306 17.1556 8.69764
Au 18.2249 24.5058 21.0628
Pt 14.243 21.3937 12.7947
Au 19.5266 7.80368 16.1965
Pt 8.69021 15.2737 21.2041
Au 7.66217 7.29352 8.62426
Au 8.01588 23.4226 17.7097
Pt 16.6256 20.8835 7.99018
Pt 13.9071 10.7499 20.1698
Pt 9.77137 12.1684 12.704
Pt 14.0714 7.87669 20.807
Pt 12.1859 10.6665 12.2926
Pt 7.39931 9.79131 12.9456
Pt 11.5311 10.6977 7.03428
Au 8.60723 14.5665 24.2618
Pt 17.2274 15.6448 5.83592
Au 13.0821 20.4033 5.12346
Pt 12.5578 20.7327 21.9834
Au 18.9522 16.8027 26.4609
Pt 22.6773 13.8216 14.1654
Au 3.7396 14.0248 13.4008
Pt 23.4208 20.7078 20.0803
Au 4.37413 19.9975 17.9056
Pt 13.0438 8.09667 18.5123
Au 9.19645 5.40219 18.6175
Pt 8.16587 20.721 16.7977
Au 25.8574 21.5354 21.0153
Pt 11.1771 14.5827 20.1548
Pt 22.5917 18.7738 10.6991
Pt 10.031 18.5838 7.01333
Au 15.9745 12.1458 4.41204
Au 8.14637 5.50237 11.0334
Pt 19.6283 11.6483 18.6592
Au 7.19875 9.7847 7.33727
Pt 8.18263 19.3379 19.4297
Au 15.5651 25.0425 20.9716
Pt 6.32259 15.5524 17.5285
Au 13.3408 13.1444 3.73176
Pt 10.7151 15.2077 12.7118
Au 8.44019 21.9242 21.751
Pt 10.4707 17.1921 19.7075
Au 10.7356 7.52643 19.9409
Pt 15.0562 9.8471 22.4444
Au 11.275 3.57289 13.6389
Pt 24.7172 19.8098 18.0119
Au 9.67357 5.21304 8.63365
Pt 16.8056 14.1186 22.0464
Au 12.9742 24.5738 19.7825
Pt 17.0445 11.656 23.4711
Au 17.6647 19.9551 26.6394
Pt 18.8509 8.47442 12.4999
Pt 10.0254 18.7812 13.0145
Au 3.67158 15.3037 15.8884
Au 5.92837 9.69385 20.5416
Pt 10.4601 16.0513 22.9272
Au 25.1244 19.7746 11.4857
Pt 16.6857 13.2854 8.74928
Au 18.3228 15.0787 15.1773
Pt 7.69319 8.82422 15.4429
Au 6.45835 7.59562 11.2216
Pt 14.4273 14.436 9.3976
Au 8.09707 20.4497 7.36452
Pt 14.7728 11.0421 24.8746
Au 23.5099 23.1029 21.2059
Pt 8.8815 14.3007 6.74278
Au 12.4321 22.7149 6.54944
Pt 9.21732 14.3758 10.7195
Au 18.0774 7.14019 23.2734
Pt 13.2975 12.5296 7.98109
Au 10.5921 24.1527 18.6253
Pt 17.8712 7.47751 18.4384
Au 5.75079 22.1717 16.8115
Pt 8.82019 10.5667 17.1831
Au 3.48095 21.2014 15.648
Au 27.3658 14.3224 14.1236
Pt 14.5345 7.45556 9.7754
Au 22.4803 24.3801 13.6551
Pt 16.1127 7.35813 12.2425
Au 7.88729 17.1688 6.28115
Pt 9.85026 13.2639 22.247
Au 4.43192 10.5543 18.2153
Pt 8.87139 17.9036 21.6018
Au 9.1087 19.7639 23.5755
Pt 6.67843 17.0194 10.8981
Au 15.0739 14.3662 18.0769
Pt 11.8124 21.7144 10.0304
Au 4.98132 15.415 20.0503
Pt 7.69208 11.8612 21.2304
Au 12.4276 10.9527 26.1407
Pt 15.5387 6.47908 18.9601
Au 10.0756 4.44993 16.0506
Au 4.36553 12.7288 10.9867
Pt 19.2271 19.7913 18.2987
Au 17.2602 23.792 7.29636
Au 13.3626 22.4683 24.2294
Pt 11.4494 13.2549 5.9566
Au 6.53352 21.3254 19.3193
Pt 18.2796 22.7765 18.9619
Au 20.1679 19.2569 25.9509
Pt 8.12701 18.1292 8.81801
Au 17.3376 11.4397 26.1548
Pt 12.2871 14.187 22.8892
Au 7.83521 21.813 9.83311
Au 6.36243 16.7775 22.045
Pt 14.4504 18.2624 21.7775
Pt 15.8228 11.4366 7.13218
Pt 7.17184 13.9836 19.599
Pt 13.1271 8.05077 15.7844
Pt 11.349 6.42736 17.3223
Pt 12.0585 12.9865 13.8026
Pt 6.16775 11.0606 16.2091
Pt 6.54576 18.5094 17.5382
Pt 11.2866 10.2541 19.1941
Pt 10.8184 22.0457 16.9001
Pt 8.86587 7.60977 12.8161
Au 24.7008 12.7166 9.73895
Au 9.88394 24.6055 15.9713
Pt 19.7198 14.6938 5.70989
Au 8.90116 12.4451 4.65769
Pt 7.93646 14.0298 13.2083
Au 5.06919 14.0802 8.63692
Pt 12.2526 5.79646 14.7238
Au 5.11855 10.0443 11.4134
Pt 19.4417 17.1854 6.62707
Au 9.99344 7.95317 22.5562
Pt 10.2535 20.1755 20.9339
Au 7.70888 9.40059 22.5566
Pt 18.8207 12.4376 21.2585
Au 20.0241 5.97916 18.9647
Pt 13.9289 22.899 21.6166
Au 4.99476 9.49856 14.2775
Pt 16.5943 7.92385 21.1147
Au 16.6572 26.5771 16.2114
Pt 10.9269 5.98431 12.3629
Au 14.0768 3.9448 13.7797
Pt 23.362 17.9619 19.2025
Pt 11.9958 20.2855 7.70002
Au 17.9128 10.243 5.69848
Au 3.59282 17.0167 13.4082
Pt 18.7237 10.7247 10.9662
Au 3.30555 18.4787 15.7463
Pt 14.8423 16.7306 6.17244
Au 12.4436 8.64663 5.6561
Pt 6.9016 11.5674 18.7503
Au 21.3291 19.0488 6.03051
Pt 15.6433 9.22201 18.9981
Au 17.2647 17.6028 14.4187
Pt 10.1214 16.1146 8.26485
Au 15.6369 10.5361 15.4981
Pt 15.5502 8.11713 16.7103
Au 19.0101 8.438 7.7312
Pt 6.5139 14.372 10.9753
Au 19.6012 5.07084 16.4874
Pt 19.3575 20.3226 23.4076
Au 8.23587 15.1452 4.36808
Pt 7.35765 11.9553 11.3735
Au 20.9088 23.9511 21.2276
Pt 24.2846 16.3654 21.0175
Pt 10.4568 16.1228 5.63629
Au 9.92977 23.6978 10.6033
Au 20.7354 8.53472 23.0313
Pt 9.18691 11.7279 7.21805
Au 5.89687 13.8312 15.3494
Pt 12.867 15.5084 4.84534
Au 12.0268 15.4986 10.1678
Pt 14.4421 8.91218 13.6474
Au 19.9587 14.8871 17.4901
Pt 12.0317 8.12133 8.33205
Au 16.8015 18.8134 16.904
Pt 21.4678 16.6168 21.283
Au 11.5668 14.7677 17.136
Pt 19.1968 13.169 10.0706
Au 12.6185 10.6086 14.938
Pt 25.0443 15.6652 18.5985
Au 23.3908 9.19453 12.667
Pt 19.2229 18.2039 21.7367
Au 13.0711 8.78733 24.241
Pt 12.7217 16.3699 21.299
Au 12.4072 6.62968 22.3401
Pt 24.7778 17.2764 16.4887
Pt 11.5049 18.1066 9.36766
Au 18.299 21.6326 6.01615
Au 12.1122 24.1515 8.87525
Pt 5.79178 19.8526 15.3939
Au 19.1136 9.54406 24.9918
Pt 8.33388 16.6887 12.9675
Au 15.6363 3.92755 16.0776
Pt 14.9752 16.5177 10.958
Au 4.1446 17.1131 17.974
Pt 15.2729 18.1053 24.231
Au 14.4593 7.14375 7.01975
Pt 9.84838 20.0301 9.48234
Au 23.3717 17.2334 7.12836
Pt 15.9854 18.5931 9.40704
Au 14.3119 17.5156 16.415
Pt 23.2622 22.0893 14.7995
Au 17.2262 16.0715 17.6564
Pt 14.9696 19.7352 14.8972
Au 23.1758 9.62639 21.7106
Pt 20.7099 14.2722 22.5902
Au 23.624 18.7149 24.6143
Pt 20.6707 22.1972 14.4187
Au 13.1968 14.6178 27.4807
Au 19.093 22.9324 23.0674
Pt 11.8911 22.7437 12.51
Au 10.0215 22.3982 8.03249
Pt 7.99235 18.3758 15.0683
Au 8.75285 4.96181 13.677
Pt 22.3557 15.5659 18.9286
Au 15.4167 26.6289 13.4399
Pt 9.76177 21.2311 11.8632
Au 4.80582 13.3171 17.9062
Pt 16.7651 22.2135 21.4589
Au 24.8829 18.1333 9.2724
Pt 17.9965 22.2275 14.2617
Au 12.3698 26.1472 14.0689
Pt 21.4944 21.3793 22.071
Au 17.0721 21.4259 24.4023
Pt 7.57795 15.6283 8.79552
Au 16.7894 4.71284 13.6024
Au 3.84516 19.8338 13.3449
Pt 8.00496 19.2977 11.3083
Pt 11.9928 5.96207 9.93222
Pt 16.311 12.9223 11.3988
Pt 10.492 19.6778 18.2486
Pt 7.61498 9.63538 10.0844
Pt 9.92635 9.94448 14.3778
Pt 23.1032 14.1794 21.3481
Pt 17.5202 15.2501 10.5208
Pt 14.5583 12.6106 22.7267
Pt 23.2745 18.6519 21.8885
Pt 22.9735 17.5867 14.3087
Pt 17.8236 9.81388 17.0566
Pt 19.872 11.4878 23.3424
Au 5.84322 20.8896 11.6431
Au 25.5697 15.5092 9.8668
Pt 9.52646 11.6812 9.96428
Au 6.90756 19.6998 21.8721
Pt 14.7289 18.9438 12.0304
Au 20.1154 12.0427 25.8415
Pt 20.3094 9.01437 18.5096
Au 6.04871 19.6651 9.20547
Pt 17.7759 12.9889 6.33017
Au 15.503 15.2556 15.5449
Pt 9.61844 12.455 19.3204
Au 24.498 12.0343 22.5892
Pt 10.823 13.4688 8.54196
Au 10.2637 3.80399 10.9823
Pt 13.9835 5.87148 16.9872
Au 25.798 13.8345 20.7242
Pt 21.9217 12.0057 21.8249
Au 23.0124 19.8187 8.06858
Pt 13.5562 10.3857 17.4214
Au 9.87155 7.30462 6.84765
Pt 12.5152 18.9014 19.8208
Pt 21.074 17.9852 8.65166
Au 19.8696 12.1475 4.73587
Au 14.9833 18.3577 18.93
Pt 20.7541 20.5597 9.9147
Au 6.6026 12.3753 6.50198
Pt 9.67042 9.4139 8.4875
Au 23.5809 10.1525 9.96913
Pt 13.6307 11.3998 5.66722
Au 17.5499 13.747 19.2231
Pt 11.8967 10.6359 9.62563
Au 15.542 4.8967 11.0983
Pt 21.0209 15.7031 14.8594
Au 12.6992 15.5514 14.7694
Pt 18.4766 10.6581 14.4248
Au 18.5262 13.1105 12.7618
Pt 6.71469 9.05932 18.0601
Au 15.0139 20.1901 25.8867
Pt 14.4675 15.7312 25.4971
Au 26.8302 16.3608 12.3748
Pt 16.2377 11.7403 20.8093
Au 18.2924 14.0207 26.6675
Pt 9.2171 15.1423 18.3217
Pt 18.6019 23.9385 16.4117
Au 14.7466 24.4342 8.21556
Au 3.79051 12.0345 15.5738
Pt 21.1444 9.34804 11.2698
Au 23.3117 21.484 10.1171
Pt 20.991 13.901 12.1119
Au 12.2606 25.2753 11.4227
Pt 21.5172 22.4107 11.9602
Au 12.7697 12.7516 18.531
Pt 21.3814 15.435 7.67614
Au 18.9021 15.5202 20.8281
Pt 21.8191 19.7139 17.9668
Au 13.7971 14.4831 12.3117
Pt 14.952 21.05 17.5179
Au 25.1903 10.2364 14.6104
Pt 22.5879 11.155 14.5462
Au 9.92644 13.9951 15.0764
Pt 7.91229 15.6811 15.4986
Au 14.7555 25.8451 18.2492
Pt 21.2095 18.5187 23.4311
Au 19.8772 7.33847 10.0054
Pt 12.8509 16.9661 23.9006
Pt 14.5302 19.3719 7.15812
Au 20.6725 10.3905 6.65027
Au 20.0997 24.7539 18.6571
Pt 24.025 19.6995 15.5975
Au 14.8286 12.4293 27.1871
Pt 18.8349 22.1422 8.79315
Au 23.9541 14.4945 7.73514
Pt 16.3238 22.9016 12.4018
Au 17.0028 20.1228 12.9909
Pt 16.972 18.3011 6.84892
Au 19.427 26.3988 16.4347
Pt 5.87938 11.4063 9.13158
Au 13.8843 12.9645 15.9114
Pt 18.4004 17.5061 9.16276
Au 16.5135 12.889 14.5392
Pt 12.2394 23.6495 15.0171
Au 5.05277 12.4385 20.5423
Pt 18.8909 22.687 11.4344
Au 5.42415 22.1508 13.9691
Pt 18.1412 20.0554 10.3745
Au 21.5718 6.33048 14.9908
Pt 17.6865 25.0773 11.9245
Pt 16.2196 16.0265 8.29791
Au 5.31945 16.9949 8.55211
Au 12.0905 5.72105 7.10346
Pt 19.1335 19.6618 7.76943
Au 25.7441 20.9572 13.8534
Pt 20.5419 11.286 12.8518
Au 24.2159 22.58 12.3601
Pt 12.3333 21.6507 19.2689
Au 5.34515 18.5032 20.0342
Pt 15.7157 21.0186 10.5666
Au 18.826 24.8155 9.44991
Pt 8.00057 13.2302 17.0112
Au 22.2411 13.6171 5.66053
Pt 22.9177 16.202 9.72227
Au 13.7839 17.9887 4.05729
Pt 13.9602 23.1708 10.7137
Au 15.8514 11.7625 18.0751
Pt 14.6139 20.6129 20.3765
Au 10.5821 12.7198 24.9519
Pt 14.1362 21.8151 8.47235
Au 21.8927 20.9335 24.6467
Pt 16.9519 19.5696 21.9775
Pt 15.0002 6.42009 14.571
Pt 19.5733 16.3958 23.6964
Pt 5.87517 15.6624 13.2374
Pt 24.3482 17.131 11.828
Pt 5.59254 17.1082 15.4441
Pt 13.586 6.423 12.2826
Pt 8.14734 11.804 14.7389
Pt 11.7355 8.23583 13.5503
Au 25.0352 22.8207 18.8455
Pt 20.3142 18.1023 13.8228
Au 15.3821 15.0255 3.85102
Pt 11.0318 9.15861 16.766
Au 17.9864 14.0008 3.6845
Pt 16.6845 10.2241 12.5469
Au 3.27629 11.2996 13.0348
Pt 9.8275 9.69991 11.5906
Au 11.926 3.58259 8.77674
Pt 5.79197 12.0585 13.4006
Au 19.0398 6.17666 13.9544
Pt 20.9821 11.2406 9.56594
Au 12.9853 3.83798 11.2931
Pt 22.7577 16.161 23.4611
Au 21.7115 17.1063 25.7412
Pt 23.7549 13.303 18.8363
Au 26.8838 12.1043 15.6599
Pt 12.1291 19.9705 12.0836
Pt 25.5268 18.2597 13.8947
Pt 16.2698 10.8091 9.70206
Au 21.7212 16.4278 5.05482
Au 15.2392 9.31007 5.4081
Pt 18.6884 14.9873 8.11485
Au 21.1908 23.3239 9.46405
Pt 20.3527 12.8938 7.55787
Au 25.4154 11.0207 11.8936
Pt 9.90857 7.14531 15.1741
Au 22.9352 11.7731 7.70961
Pt 20.9221 8.94834 14.1641
Au 14.4855 11.8117 13.1538
Pt 16.9071 20.4924 19.286
Au 20.841 13.6463 19.8523
Pt 14.0657 13.9118 20.5986
Au 16.4782 15.2199 12.9649
Pt 22.7732 10.1258 16.9931
Au 20.7485 14.6626 25.4825
Pt 13.3446 23.1782 17.3505
Au 8.15927 17.2053 24.064
Pt 9.97942 10.6818 21.8934
Au 17.4518 4.56373 18.2316
Pt 16.991 16.8965 22.355
Pt 18.4811 11.0452 8.28444
Au 7.67166 5.93792 16.1004
Au 5.36557 7.69789 16.3108
Pt 14.9741 13.9694 6.39797
Au 23.9719 24.2169 16.2944
Pt 14.1552 5.12861 8.85108
Au 15.203 22.3874 6.1173
Pt 14.9143 20.6644 23.1261
Au 18.113 12.6114 16.6935
Pt 9.77773 7.43347 10.2226
Au 18.8161 19.8807 15.224
Pt 16.6151 23.3269 9.82531
Au 24.9437 11.1589 20.0403
Pt 21.1425 19.3404 20.4801
Au 22.0713 7.31089 17.5013
Pt 24.7646 15.5977 14.0467
Au 25.6426 21.9743 16.3729
Pt 11.6374 17.5552 17.0621
Au 7.99099 7.36971 20.5629
Pt 15.3328 23.0012 19.3398
Au 22.2241 10.6521 24.1687
Pt 12.4786 18.4653 14.467
Pt 21.7049 12.7341 17.1807
Au 21.2463 6.92147 12.3637
Au 10.7326 14.2383 3.62103
Pt 14.7652 15.4125 22.9306
Au 6.45603 6.98885 13.8467
Pt 13.2988 13.3544 25.1105
Au 17.6173 17.8824 19.6558
Pt 22.2767 11.0987 19.348
Au 22.772 20.0914 12.9704
Pt 15.0065 22.4242 15.0957
Au 19.3872 17.497 16.4444
Pt 14.3986 25.1541 15.5885
Au 10.9371 12.0124 16.6274
Pt 17.3952 21.5171 16.7428
Au 13.2154 16.1957 18.7484
Pt 20.2668 17.3172 19.0195
Au 7.64446 23.2337 15.072
Pt 11.4005 18.4709 22.4265
Au 16.5422 17.5751 4.03664
Pt 25.7287 14.5595 16.2296
Au 4.36701 18.4052 11.0017
Pt 12.4328 17.7798 6.5402
Au 20.7708 14.3956 3.38078
Pt 14.5129 9.54458 11.1284
Au 26.8076 17.8832 18.2642
Au 12.2103 25.6972 17.0117
Pt 20.0279 18.2054 11.1909
Au 10.5928 17.9545 25.123
Pt 17.314 17.7373 11.6711
Au 16.007 20.0779 4.9765
Pt 16.1008 23.7979 17.0719
Au 20.23 13.0137 14.9616
Pt 12.4692 21.089 14.7036
Au 22.7035 24.2604 18.7902
Pt 13.5295 19.6221 9.83665
Au 27.2406 16.7336 15.4418
Pt 11.6957 13.0347 11.047
Au 10.36 20.9037 5.68021
Pt 16.7543 24.5407 14.4532
Pt 21.476 19.8583 15.4124
Pt 19.4532 24.39 13.8965
Pt 14.0412 12.0232 10.4193
Au 15.2156 25.543 10.8774
Pt 17.0521 15.9048 24.793
Au 12.74 3.67179 16.3303
Pt 8.74192 9.73772 19.7837
Au 9.4546 9.65419 5.55279
Pt 21.8555 16.4206 12.2686
Au 21.6557 8.83575 8.6019
Pt 22.8757 11.9439 11.8333
Au 22.7583 13.3856 24.2093
Pt 22.9292 21.9442 17.3883
Pt 17.8858 18.4746 24.4461
Pt 16.4129 8.85452 7.82854
Au 11.0321 18.4912 4.40609
Pt 23.165 15.0029 16.4539
Au 25.493 17.4954 23.0605
Pt 20.3439 10.5371 16.2478
Au 23.8151 8.8152 19.0727
Pt 14.0054 9.8246 8.17865
Au 26.9962 20.7594 18.6468
Pt 19.1712 15.9377 12.658
Au 14.9563 5.29477 21.2862
Pt 22.0852 17.3879 16.8279
Au 15.116 7.12369 23.3001
Pt 17.3859 8.48908 10.2428
Au 26.7936 19.4579 16.0408
Pt 11.967 12.1916 21.0441
Au 16.4868 9.00809 24.7034
Pt 23.7722 14.4709 11.7449
Au 19.4764 21.8559 25.5915
Pt 18.0822 9.68219 22.3915
Pt 18.5829 13.7865 24.0079
Pt 12.1678 8.33016 10.9942
Au 18.1389 5.85138 11.3483
Au 16.7652 6.25036 8.83505
Pt 24.1968 12.4069 16.3129
Au 17.4622 25.5418 18.6616
Pt 19.8239 20.4379 12.5922
Au 27.6153 15.2878 17.9618
Pt 24.9809 12.847 13.7751
Au 10.7447 21.8256 23.5874
Pt 15.6352 16.0257 20.2906
Au 18.7334 19.1932 4.89942
Pt 19.1982 7.77573 20.8212
Au 10.323 9.9246 24.4627
Pt 21.2981 24.1731 16.1664
Au 6.58266 14.0125 22.3952
Pt 12.81 19.9196 17.0302
Au 25.0615 14.771 23.2054
Pt 19.0721 21.0244 20.8777
Au 17.699 5.51439 20.7455
Pt 17.1794 6.14126 16.1194
Au 11.0333 23.0525 21.2149
Pt 14.1423 24.2284 13.1363
Au 20.5537 25.0426 11.6131
Pt 12.3468 17.327 12.0499
Au 20.9708 26.4566 14.2734
Au 21.0103 21.5569 7.27882
Pt 17.9572 10.0266 19.7705
Au 25.4699 10.289 17.4002
Pt 12.6367 15.16 7.40839
Au 25.7204 18.8885 20.6018
Pt 14.6232 17.0521 13.6716
Au 24.0852 20.9287 22.9387
Pt 22.0796 13.613 9.66409
Au 11.3662 15.3337 25.5386
Pt 7.8547 20.6412 13.7687
Au 26.3875 12.8242 18.2495
Pt 9.3468 21.8275 19.2055
Au 26.4328 13.6687 11.6747
Au 12.5899 19.8043 24.5881
Pt 20.1846 21.8527 16.9653
Au 13.2946 17.877 26.4581
Au 26.899 16.3328 20.5572
Pt 20.2841 15.7142 10.1624
Au 23.4104 8.28064 15.2465
Pt 20.417 10.1395 20.9179
Au 14.7625 3.92541 18.6932
