561
Atoms. Timestep: 20546
Pt 8.45859 10.5584 20.2567
Au 4.97471 9.32017 14.5354
Pt 10.7565 8.8057 9.67167
Au 10.8991 3.6883 14.807
Pt 6.81755 11.1471 13.4337
Pt 4.71958 12.3758 18.3184
Au 6.25156 8.70526 11.9641
Pt 5.56701 13.4562 13.662
Au 5.67749 23.0883 18.316
Pt 5.2533 15.8356 11.8701
Au 6.39937 20.7399 11.4657
Pt 8.25267 10.7528 15.8524
Au 17.0439 3.53855 19.2172
Pt 5.23832 15.7523 14.7771
Pt 6.91654 12.7453 20.0131
Au 7.81191 6.39994 12.2804
Au 3.07502 14.5545 13.71
Pt 11.5163 20.5943 13.2733
Au 6.52485 11.5069 8.77441
Pt 4.32187 13.7703 16.0819
Au 6.81892 23.8916 15.9586
Pt 7.8061 13.3579 15.0897
Au 3.88502 13.0699 20.7321
Pt 6.9215 19.5732 21.8471
Au 4.50188 18.4504 15.9547
Pt 7.34311 14.9682 21.4776
Au 4.62364 20.0247 13.5716
Au 10.6765 25.8626 14.3318
Pt 7.11698 18.0937 11.3282
Au 3.68249 16.8571 19.6092
Pt 6.91685 20.7128 18.2862
Au 10.4337 25.8488 21.7666
Pt 9.63359 20.4538 17.9846
Au 3.50167 17.3504 13.5077
Au 7.3387 23.8568 20.5898
Pt 8.15676 21.4561 15.9691
Pt 8.99405 9.15971 18.025
Pt 11.7271 7.10502 11.5738
Pt 6.85325 10.8581 18.1517
Pt 12.6352 7.87322 13.9771
Pt 15.4613 4.46105 14.2163
Pt 7.84216 10.8995 11.0337
Au 5.05143 11.0509 11.2444
Pt 8.6817 13.2633 9.60355
Au 3.71474 11.6535 13.6477
Pt 8.64983 7.10497 16.329
Au 9.62711 4.83232 17.2694
Pt 12.4303 6.6617 8.95636
Au 15.1394 4.02789 17.2693
Pt 7.79941 8.75637 14.1535
Au 4.4713 9.66242 17.8899
Pt 9.96885 7.45465 13.6836
Au 12.1452 4.53607 10.5966
Pt 10.326 5.16048 12.5836
Au 19.2303 6.65463 22.1324
Pt 8.81375 12.7681 21.89
Pt 13.1416 8.90752 19.1883
Pt 7.62638 15.1925 7.76961
Au 13.746 9.05122 5.09852
Au 9.64408 6.32663 10.0175
Pt 6.64202 13.2751 11.3138
Au 14.531 4.87159 8.72693
Pt 9.91564 15.5817 8.96141
Au 6.6938 8.42439 19.4422
Pt 9.11916 8.70205 11.637
Au 12.431 15.0753 12.8218
Pt 11.753 9.62704 12.2973
Au 5.43331 21.2149 15.9712
Pt 5.75054 11.6003 15.8363
Au 5.3836 10.6356 20.5606
Pt 6.61404 8.71607 16.6019
Au 3.12995 11.363 16.2831
Pt 5.4794 14.8439 19.5585
Au 8.84425 6.70412 19.3028
Pt 9.19695 14.1826 19.6174
Au 12.289 4.45635 17.5102
Pt 11.2141 6.17664 15.5263
Au 14.1577 8.45593 23.8015
Pt 10.7469 9.03712 20.1203
Pt 7.54531 15.628 10.407
Au 7.7051 8.65726 9.35947
Au 14.3585 16.7904 12.0509
Pt 10.808 13.0229 7.65326
Au 12.1181 16.8415 10.411
Pt 6.20063 17.7726 13.7498
Au 14.746 17.059 9.15269
Pt 7.47599 15.2753 13.13
Au 12.8133 13.704 15.2522
Pt 9.85599 15.2451 11.6924
Au 15.3764 14.6812 14.9123
Pt 9.14439 12.1038 18.0229
Au 9.55149 14.7274 17.0121
Pt 7.23575 18.7766 16.3477
Au 5.67969 21.6344 20.6565
Pt 5.70349 18.3348 18.4567
Au 4.42507 19.1862 20.8278
Pt 7.59932 16.1847 18.5903
Au 6.33975 6.72039 14.7049
Pt 11.2765 15.1555 24.979
Au 12.5539 21.8127 24.8174
Pt 9.42895 17.1434 25.0484
Au 9.14915 19.9954 7.0715
Au 6.23268 19.5304 9.07839
Pt 7.6498 16.1735 15.747
Au 11.6903 20.04 5.88467
Pt 11.009 22.1194 10.865
Au 5.4519 16.8537 9.20171
Pt 6.85288 13.7883 17.4509
Au 6.47359 22.5032 13.6071
Pt 10.8699 25.6684 17.2102
Au 11.5459 17.7542 13.125
Pt 14.8512 24.2644 20.8625
Au 9.76206 19.281 15.1661
Pt 13.8853 22.2927 17.026
Au 3.07146 14.5038 18.3498
Pt 9.76616 23.2403 21.5765
Au 7.68919 21.9639 22.8855
Pt 8.44933 21.2895 20.3781
Au 6.54472 15.2994 24.1071
Au 4.57031 15.4555 22.0542
Pt 12.8816 22.068 22.0675
Au 8.30677 24.5921 13.5587
Au 11.8359 26.6466 19.545
Pt 9.59673 23.7382 15.8436
Au 4.53663 18.5146 11.2566
Pt 11.1015 21.6071 15.7893
Au 10.1842 24.7228 11.5238
Pt 8.46802 22.9218 18.1754
Au 14.5535 26.6351 19.6326
Pt 15.5941 21.7594 21.4153
Au 5.38161 17.812 23.2472
Au 8.49877 26.1321 15.9757
Pt 12.0657 24.0439 20.4837
Pt 16.6958 6.1104 9.69494
Pt 16.8758 6.75578 7.235
Pt 16.4653 6.24889 15.966
Pt 17.7201 7.30904 13.6257
Pt 12.9118 5.18224 13.2422
Pt 22.1293 8.71331 15.211
Pt 13.8481 5.97931 15.6612
Pt 10.3593 9.0126 15.7132
Pt 14.6813 11.2015 23.6922
Pt 11.9272 10.8863 8.57108
Au 16.945 3.55912 10.0869
Au 13.4401 3.19248 15.2288
Pt 14.2377 6.33812 10.9891
Au 14.2342 6.73124 6.51442
Pt 12.3872 8.649 7.35586
Au 17.0164 2.82989 15.705
Pt 16.224 8.12509 11.3565
Au 14.6074 3.65973 11.6217
Pt 16.489 12.2069 7.50052
Au 20.5994 4.08087 15.3056
Pt 9.62511 10.5664 13.5366
Au 13.4422 11.7393 19.4964
Pt 16.7503 5.36528 12.1248
Au 21.4237 6.38419 20.2179
Pt 11.0155 7.25808 17.9941
Au 13.9694 6.0799 22.4247
Pt 11.3789 10.4432 17.7389
Au 8.56104 5.07637 14.6198
Pt 18.8665 5.53466 19.7643
Au 11.7298 7.99918 22.4788
Pt 15.3516 12.3961 21.3575
Pt 12.7582 11.5358 5.81851
Au 19.1154 5.43491 8.87402
Au 3.92186 13.5344 11.3511
Pt 9.26456 10.8507 8.60463
Au 8.2113 12.6888 6.79834
Pt 10.432 11.3339 10.8674
Au 9.68466 7.95029 7.48136
Pt 8.94171 12.9245 12.6133
Au 14.6096 13.1134 12.6623
Pt 15.0354 7.02424 13.4116
Au 10.4493 12.3131 15.5481
Pt 5.19154 16.0637 17.2916
Au 13.2183 17.9144 17.8191
Pt 14.9865 8.84465 15.231
Au 10.8789 11.9006 20.3025
Pt 9.15902 14.9944 23.448
Au 10.1453 10.3589 22.5549
Pt 11.0314 14.5205 21.5713
Au 14.2562 10.8155 26.1876
Pt 10.9152 16.9628 22.9225
Au 12.0812 6.38609 20.3212
Pt 10.6648 12.8103 23.7953
Pt 9.93077 15.063 6.39177
Au 10.385 10.3218 6.17282
Au 16.0101 17.5846 3.74148
Pt 8.89718 20.097 9.70186
Au 11.4842 13.695 10.2057
Pt 12.4661 14.4069 5.80747
Au 11.8155 12.3986 12.9637
Pt 7.30749 20.0061 13.9894
Au 11.3861 16.5931 15.88
Pt 8.86887 17.4428 13.4685
Au 10.0513 14.8687 14.3105
Pt 8.13383 18.7068 19.5376
Au 13.6319 15.3585 17.3362
Pt 11.4047 19.4721 10.8998
Au 11.8042 13.2289 17.8754
Pt 9.3705 16.6221 20.7545
Au 11.3489 15.8708 18.9215
Pt 9.53461 19.2011 21.7807
Au 19.5002 21.1864 23.8884
Pt 7.96471 17.2888 22.8866
Au 5.88137 12.9353 22.6101
Pt 16.9273 20.129 23.2618
Pt 12.3087 24.0616 15.6895
Au 8.81248 17.4104 6.17916
Au 9.60222 22.3919 8.47065
Pt 10.65 18.0544 8.22852
Au 18.726 23.4044 7.99732
Pt 11.6007 20.5845 8.57521
Au 4.26013 20.5659 18.4099
Pt 13.4879 21.7629 11.9104
Au 8.36636 22.6164 11.1287
Pt 11.5623 23.3462 13.3575
Au 12.5164 19.2438 15.4643
Pt 11.0871 21.2694 20.3486
Au 11.1157 18.5493 19.6779
Pt 9.27828 22.091 13.6503
Au 13.8554 19.6947 20.5257
Pt 10.3695 21.3422 23.2286
Au 12.967 16.9454 21.1317
Pt 16.7912 19.4351 20.5394
Au 9.55114 17.6916 17.4545
Pt 8.46212 19.5683 24.0808
Au 15.8462 26.5898 17.1339
Pt 15.3972 18.0107 22.3434
Au 15.6572 26.4931 14.3174
Au 11.4957 24.2241 8.98154
Pt 9.12642 19.913 12.2227
Au 7.37226 25.3643 18.2656
Pt 9.73067 24.8218 19.4025
Au 14.3057 24.9362 8.96184
Pt 13.6466 21.712 14.5936
Au 12.2098 22.5762 6.8705
Pt 14.2877 23.9946 13.4391
Au 13.0468 26.3041 13.2111
Pt 13.3397 24.7588 18.1756
Au 15.1689 20.0789 18.2045
Pt 14.9047 24.386 15.8535
Au 17.2258 26.305 19.5239
Pt 17.4692 23.8819 20.7392
Au 25.1902 23.2939 15.1941
Pt 15.8904 24.0471 18.3538
Au 19.8031 23.5406 22.2882
Au 13.1894 25.9152 22.032
Pt 17.1521 21.8474 18.9379
Pt 13.3378 8.96051 10.2662
Pt 14.7514 13.2498 5.49297
Pt 14.3649 10.3534 7.71258
Pt 18.1921 4.77631 14.3439
Pt 16.8153 9.41919 7.4655
Pt 18.2907 4.74115 17.1031
Pt 17.6276 8.5638 15.9029
Pt 14.8734 7.62778 20.6346
Pt 23.3011 10.5228 17.2651
Pt 18.6644 7.30375 17.9632
Pt 21.3203 7.88844 17.6702
Pt 15.3007 14.7567 7.71722
Au 14.4288 11.1535 3.29724
Au 7.73594 9.83464 6.83169
Pt 15.0196 7.86795 8.72862
Au 19.158 7.9932 6.46477
Pt 18.4082 10.4333 5.66346
Au 22.7799 4.97282 13.378
Pt 16.3997 6.04517 18.7195
Au 17.0676 2.77641 12.8311
Pt 20.0247 8.51986 13.5044
Au 14.4316 9.96149 12.6492
Pt 12.8373 8.30024 16.5729
Au 22.8036 8.80801 19.7439
Pt 18.9134 6.8235 11.2591
Au 20.8486 5.18763 17.8263
Pt 13.848 6.51265 18.237
Au 23.5615 10.3365 21.9414
Pt 13.3341 9.95092 21.6176
Au 8.62996 8.22982 21.565
Pt 15.7153 8.36826 17.7696
Au 16.6545 5.31439 21.3582
Pt 15.3827 13.6466 23.9738
Pt 14.2521 16.5811 6.15585
Au 17.7288 19.7317 4.47714
Au 13.48 11.7199 10.6074
Pt 13.5403 12.9386 8.02346
Au 17.2239 15.8776 9.79579
Pt 15.613 18.9674 6.06593
Au 18.4673 15.517 14.1812
Pt 16.0049 21.6857 13.3176
Au 16.0371 13.1642 9.87372
Pt 18.468 9.48825 11.5053
Au 13.9622 14.6896 10.3267
Pt 14.7116 11.6631 14.8239
Au 16.7276 11.0562 16.4459
Pt 19.8912 9.73739 16.0184
Au 14.9142 13.0484 17.2729
Pt 15.432 15.2608 21.7585
Au 16.7979 11.916 26.0282
Pt 17.5957 13.7164 21.2557
Au 7.31704 10.5872 22.6687
Pt 13.1616 15.0718 23.1456
Au 17.0518 17.1468 26.6108
Pt 11.0276 19.1911 24.6797
Pt 14.2525 20.7793 7.59842
Au 13.5159 18.5796 4.41605
Au 10.3888 12.7996 4.93976
Pt 12.4006 15.6454 8.01913
Au 14.8347 23.3403 6.735
Pt 18.2939 17.0804 5.10407
Au 14.2054 19.3585 12.9701
Pt 9.57532 17.6394 10.7878
Au 20.1372 13.5558 14.7899
Pt 16.2784 19.4369 8.68353
Au 13.7881 16.8845 14.8099
Pt 12.3804 10.4656 14.8951
Au 19.2758 12.3019 17.0056
Pt 21.5306 14.8218 19.2785
Au 13.4313 14.3635 20.1307
Pt 12.7816 12.5145 22.2694
Au 16.0007 14.9529 19.0746
Pt 12.0177 19.4041 22.3219
Au 11.8181 17.304 26.4488
Pt 6.26028 17.2003 20.7493
Au 7.96591 12.7889 24.4215
Pt 13.8324 15.5885 25.7574
Pt 13.1196 18.4364 7.50771
Au 5.53633 14.1017 9.06861
Au 11.5126 17.1085 5.59571
Pt 18.0615 22.9184 11.0734
Au 13.8899 15.6645 3.70797
Pt 20.7281 19.3033 7.98462
Au 16.4533 18.3168 11.2851
Pt 15.8776 20.9446 10.8145
Au 18.4187 17.3939 16.0809
Pt 13.4958 22.402 9.40921
Au 15.2502 19.5009 15.5361
Pt 11.2074 22.9988 18.1071
Au 17.6654 19.7923 17.1878
Pt 8.02812 17.6921 8.65149
Au 17.5119 14.5775 16.6618
Pt 18.3001 21.4489 21.3824
Au 11.6669 24.0327 23.4089
Pt 19.8823 19.8485 15.666
Au 14.5704 23.5384 23.5266
Pt 17.7385 16.6135 21.4312
Au 21.9938 23.943 20.2465
Pt 21.1478 20.6521 17.6966
Pt 18.4882 21.0011 8.99331
Au 15.3653 26.0833 11.5716
Au 14.3445 21.1603 5.02971
Pt 12.8781 24.3809 11.2371
Au 22.7731 22.3337 10.5963
Pt 20.5858 22.0336 12.2396
Au 21.1415 25.7965 18.0438
Pt 17.4481 24.4562 15.8824
Au 15.8166 17.0041 16.8579
Pt 16.2339 22.5049 8.80043
Au 19.5971 21.2699 6.23246
Pt 20.0249 24.6579 15.7571
Au 22.2613 24.1664 12.7137
Pt 16.9331 24.2145 13.3072
Au 12.3081 20.4129 18.0116
Pt 17.1708 22.7815 23.3049
Au 15.2298 17.4056 19.6442
Pt 15.4754 23.5231 11.1064
Au 13.1975 26.6283 16.0266
Pt 19.8231 22.5121 19.5189
Au 23.8947 23.9781 17.9464
Pt 20.9749 21.2041 21.4546
Pt 15.7853 10.2837 9.97706
Pt 20.8551 8.65412 10.7334
Pt 18.3304 8.17204 9.12865
Pt 21.93 12.9091 17.3895
Pt 22.4073 7.50554 12.7225
Pt 16.0858 9.65322 22.1236
Pt 19.6773 6.78776 15.6714
Pt 17.923 14.6353 7.3317
Au 23.3357 7.87254 10.0989
Pt 20.3081 11.4046 10.8356
Au 21.1819 10.5269 5.91289
Pt 15.7207 10.8148 5.46772
Au 12.7609 13.1734 3.48213
Pt 22.0975 10.1008 12.7937
Au 26.012 10.732 16.7011
Pt 20.2447 9.85623 8.30832
Au 21.0881 7.2984 8.3727
Pt 14.0396 10.545 17.1695
Au 24.6805 9.04195 12.2149
Pt 19.9174 8.52257 20.0694
Au 15.6875 10.268 19.5635
Pt 17.2674 11.8762 23.3744
Au 12.1711 10.4394 24.317
Pt 17.422 7.97174 20.4058
Au 16.6613 7.26383 23.1551
Pt 16.9339 14.6082 25.8917
Pt 15.712 16.1978 24.1955
Pt 16.3171 15.3529 5.15877
Au 22.0524 13.1923 6.00942
Au 21.4234 5.81669 10.76
Pt 16.7869 17.0128 7.34354
Au 16.4611 8.27024 5.04731
Pt 19.7445 14.7981 5.46324
Au 17.2258 11.8909 11.8146
Pt 18.1558 10.9672 9.18704
Au 17.3381 12.844 14.4163
Pt 21.319 15.4603 12.6098
Au 16.5627 14.9552 12.2442
Pt 20.2933 17.2521 20.3542
Au 18.2513 9.90649 18.3725
Pt 20.3509 5.90941 13.3204
Au 16.9554 10.0162 13.7472
Pt 20.0709 16.6922 23.1089
Au 18.1634 11.0008 20.8882
Pt 25.255 16.9498 17.8765
Au 14.3687 4.61954 20.018
Pt 13.2321 17.639 24.0708
Au 17.8972 19.8267 25.7866
Pt 15.5386 18.6728 25.0744
Pt 18.2846 19.1129 6.98313
Au 18.2232 14.8535 3.31363
Au 17.2842 11.2272 3.28269
Pt 19.8717 16 10.1998
Au 24.6862 16.9008 8.68114
Pt 19.576 16.8622 7.47957
Au 13.8245 19.4523 10.0747
Pt 23.4098 15.7103 10.8434
Au 20.4541 15.3473 16.806
Pt 21.953 16.9252 8.83994
Au 19.5267 11.189 13.5461
Pt 22.501 14.6996 14.9173
Au 25.5779 16.5324 20.6009
Pt 24.2584 12.7554 15.4649
Au 17.1959 12.5515 18.8091
Pt 19.0627 19.0042 22.0905
Au 18.8027 15.0412 19.0521
Pt 19.9905 14.7323 21.5115
Au 13.3241 19.5859 26.1029
Pt 14.2508 20.2707 23.3734
Au 14.7574 13.4254 26.9318
Pt 19.3607 19.8418 19.4991
Pt 21.657 12.084 8.49781
Au 22.0608 16.1189 6.14297
Au 23.0648 18.5007 6.9497
Pt 22.9704 19.4681 9.46208
Au 17.0088 25.0432 9.33448
Pt 20.5891 20.1913 10.4267
Au 19.1823 13.8166 12.1416
Pt 18.4978 22.0873 14.1185
Au 18.8759 17.4526 12.2975
Pt 23.3502 21.8254 13.7682
Au 20.7285 17.2542 14.5722
Pt 18.6081 24.3575 18.2205
Au 20.6382 17.9818 17.754
Pt 25.3542 20.6812 15.633
Au 17.8796 17.5572 18.8229
Pt 22.0743 19.2872 19.9164
Au 24.1171 18.0357 22.2135
Pt 24.9616 18.0943 15.5685
Au 25.0118 19.2209 19.8238
Pt 22.9605 21.6802 19.266
Au 15.6076 21.5229 25.2828
Pt 23.1955 21.8164 16.4297
Au 26.9254 18.9461 11.8147
Pt 19.6257 24.2528 13.2118
Au 25.0743 20.8331 10.9529
Au 16.3393 17.2196 13.9719
Pt 21.0236 22.2347 14.901
Au 18.6483 26.736 17.0486
Pt 21.5563 17.7894 11.3205
Au 18.4287 26.4473 14.2787
Pt 13.7924 22.2765 19.5236
Au 17.6375 19.5225 14.1746
Pt 22.5237 19.4972 15.0399
Au 26.6819 19.1648 17.4403
Pt 21.3324 23.2709 17.565
Au 19.7288 25.4564 20.3634
Pt 16.3707 22.034 16.0294
Au 25.3991 21.5806 18.1587
Pt 22.2506 6.21661 15.6485
Pt 20.943 10.6813 21.2042
Pt 18.805 9.2649 22.6717
Pt 18.797 13.4595 9.53806
Au 19.8691 12.3651 4.22916
Pt 24.8466 12.6432 18.1759
Au 24.0789 8.01971 17.1026
Pt 22.8247 10.5844 10.3629
Au 21.8929 11.465 15.1481
Pt 20.9205 10.4445 18.4042
Au 21.4808 8.3215 22.3495
Pt 24.316 10.0278 14.7694
Au 24.427 7.26631 14.4371
Pt 19.7109 12.4541 22.796
Pt 20.0316 12.6585 19.7222
Pt 19.4004 12.3497 7.07055
Au 19.2202 4.12017 11.5986
Pt 23.1953 14.5482 8.33381
Au 25.4547 10.8855 10.2486
Pt 20.6394 14.5723 7.95636
Au 26.41 13.098 11.5573
Pt 21.4054 13.8994 10.404
Au 20.279 18.7018 24.9023
Pt 23.8213 13.0688 10.5592
Au 24.3652 14.9558 22.7824
Pt 23.6525 14.8421 17.5102
Au 19.2655 13.2298 25.4144
Pt 21.9322 12.8118 12.7537
Au 16.5706 9.45245 24.8369
Pt 18.0454 14.816 23.5482
Au 19.0853 10.5598 24.9692
Pt 22.1667 13.2372 21.6574
Au 21.4346 14.366 24.035
Pt 13.0071 13.0399 24.9774
Pt 17.8235 17.6489 24.0263
Pt 17.48 13.0248 5.20489
Au 21.0952 22.008 8.45416
Au 20.5563 18.5341 5.41692
Pt 24.2784 11.7028 12.7434
Au 26.4954 11.8356 14.1416
Pt 18.7141 18.3651 9.63566
Au 25.1098 10.2287 19.3549
Pt 24.4262 18.0662 11.1512
Au 25.1281 12.4443 21.2041
Pt 24.9701 15.43 15.3616
Au 22.8949 9.52066 7.8934
Pt 22.8615 11.8115 19.6716
Au 23.6431 12.5036 23.6508
Pt 24.3605 14.4406 12.9446
Au 21.5434 10.7885 23.8296
Pt 22.7385 17.0367 16.405
Au 26.4242 14.7344 18.7159
Pt 23.063 17.0286 19.2606
Au 22.5227 16.8953 24.2628
Pt 22.3193 16.0913 21.6592
Au 19.4583 16.0372 25.6723
Pt 21.6153 18.8148 22.4961
Au 15.7495 13.5963 3.01991
Pt 16.8347 21.327 6.57962
Au 20.3549 24.0205 10.3716
Au 26.5273 21.482 13.3197
Pt 23.2582 17.1324 13.4957
Au 24.2456 11.978 7.98914
Pt 18.2821 20.3883 11.7153
Au 27.3482 19.0428 14.5907
Pt 23.992 14.475 20.0759
Au 27.0489 14.5839 13.7523
Pt 25.9079 16.9723 13.3671
Au 26.7483 13.552 16.3164
Pt 18.9679 22.1896 16.7813
Au 27.2761 16.5584 16.0042
Pt 23.6071 19.3683 17.5732
Au 23.5717 20.6974 21.724
Au 18.2418 25.7891 11.5473
Pt 20.3685 19.5887 13.1871
Au 26.1855 15.8788 11.0051
Au 22.7233 24.4695 15.4315
Pt 22.6699 20.0129 12.0958
Au 25.7188 14.1223 9.02628
Pt 24.7868 19.4809 13.3799
Au 24.8443 23.303 12.2988
