561
Atoms. Timestep: 20687
Pt 13.8743 21.4392 10.8572
Au 23.7709 23.2077 15.6105
Pt 21.6389 11.9751 14.5755
Au 15.119 12.4268 23.8549
Pt 20.4173 12.1085 21.5528
Pt 10.3475 15.7309 13.0646
Au 11.2258 27.5259 15.9023
Pt 17.2276 7.52027 12.5966
Au 25.0292 8.16113 19.6812
Pt 24.1885 17.0376 12.3506
Au 20.399 26.6815 12.7626
Pt 11.4407 21.1971 16.8522
Au 20.3274 22.903 9.54374
Pt 23.2642 15.2584 10.4485
Pt 17.6309 12.2934 7.72687
Au 11.9059 14.8912 4.56963
Au 25.0704 14.5168 8.61224
Pt 23.7113 11.3611 12.9933
Au 15.8431 26.0748 17.3163
Pt 10.5051 17.711 8.95945
Au 5.01226 17.5206 16.9105
Pt 19.0628 19.5192 22.4512
Au 13.3456 6.53077 21.6566
Pt 18.9821 21.3552 17.4941
Au 14.8739 3.30901 14.2737
Pt 12.6902 11.4823 17.1041
Au 6.54835 9.7008 9.82019
Au 13.181 19.5094 5.81493
Pt 8.77968 13.5737 12.3084
Au 6.29842 16.4037 22.3278
Pt 18.4564 16.7755 23.298
Au 23.8318 7.52425 15.0282
Pt 17.9313 16.154 18.733
Au 11.3278 4.08298 17.0299
Au 22.4576 18.9091 7.55689
Pt 20.0487 14.8622 17.5761
Pt 16.9383 6.64577 17.9782
Pt 10.5459 6.30897 12.7264
Pt 15.0451 22.9844 19.0023
Pt 11.2501 15.0763 8.5075
Pt 20.1467 11.653 8.21607
Pt 16.8743 9.91091 11.4153
Au 20.7778 6.63585 21.3445
Pt 10.1737 18.208 20.1394
Au 14.0637 3.96966 16.8913
Pt 21.3398 21.7009 16.3252
Au 25.5203 20.4658 16.7369
Pt 14.3498 7.63859 18.6485
Au 19.6889 14.1813 7.51668
Pt 19.8398 14.9515 20.2383
Au 18.4123 5.18889 20.1828
Pt 20.5346 17.3506 18.7923
Au 14.3931 24.031 6.717
Pt 22.3164 13.6447 8.33805
Au 16.3798 16.1568 4.30673
Pt 10.3213 23.6334 12.3079
Pt 14.4434 16.3621 21.3075
Pt 21.2414 7.68818 18.7486
Au 12.527 21.7501 23.1268
Au 3.84151 14.3392 11.0828
Pt 16.036 20.5883 9.77593
Au 3.10534 16.9682 18.741
Pt 9.46522 18.3011 11.817
Au 13.405 13.5919 26.1684
Pt 20.5972 14.8549 14.6606
Au 17.0494 23.7045 22.2007
Pt 17.36 9.88979 14.2854
Au 18.0186 17.9701 5.81933
Pt 13.339 13.0932 9.01379
Au 23.79 23.3241 12.8156
Pt 14.8955 10.5731 18.2825
Au 23.6517 6.84862 17.6501
Pt 10.0284 11.623 16.5886
Au 20.6398 15.8054 24.9048
Pt 20.6851 15.822 9.49592
Au 19.1634 21.3169 24.5929
Pt 18.2101 19.3174 13.0057
Au 25.3912 15.1363 21.9009
Pt 15.1691 21.6657 21.3891
Pt 11.7877 18.3254 16.5274
Au 19.19 12.7127 5.26808
Au 22.0393 16.6784 16.4939
Pt 21.4362 18.8191 20.9566
Au 25.5579 10.4492 11.1091
Pt 16.8182 12.6563 14.8527
Au 14.9381 21.5912 5.04156
Pt 17.9171 13.2666 21.0117
Au 23.3449 16.8392 21.2312
Pt 8.6822 12.2227 21.0812
Au 5.33138 8.52978 16.7137
Pt 15.1491 14.3183 10.8462
Au 8.19551 16.3571 5.60013
Pt 12.6809 23.4933 17.9696
Au 19.3403 5.04078 14.9651
Pt 23.0135 9.62175 11.0205
Au 26.3642 12.025 13.3374
Pt 20.9429 10.2537 19.691
Au 5.67567 15.5063 15.118
Pt 21.266 11.3189 11.8151
Au 24.883 17.4429 8.84582
Pt 16.3511 17.5503 16.8636
Au 5.97684 20.706 20.3963
Au 9.49749 27.0774 13.7946
Pt 20.1501 18.2898 9.08064
Au 19.2045 25.4919 10.6261
Pt 15.6495 19.7508 14.8617
Au 24.0586 13.238 6.44565
Pt 18.8479 16.7456 16.2409
Au 3.97188 12.1825 12.7646
Pt 21.4551 20.3407 9.82364
Au 15.5903 18.7563 4.86407
Pt 9.52505 15.6423 10.6149
Au 26.3645 13.1107 10.7333
Pt 7.22555 9.70788 15.0929
Au 5.91942 19.2872 22.8179
Pt 18.7608 11.677 10.572
Au 21.7791 6.19269 13.8862
Pt 12.8699 20.1176 14.9174
Au 28.4048 16.0758 14.8867
Au 24.1951 20.1751 9.2476
Pt 11.6648 17.9973 13.6359
Au 18.1259 16.2958 7.89206
Au 16.0025 6.46744 20.6299
Pt 13.4393 10.9132 22.3556
Au 11.3698 26.2073 11.8363
Pt 14.3684 16.7061 12.2442
Au 20.9784 5.03222 19.1883
Pt 13.9895 18.5359 10.0385
Au 5.72228 16.2623 19.4366
Pt 18.8282 20.517 10.7154
Au 19.8946 20.1868 7.24292
Au 10.6037 5.89061 9.87637
Pt 17.097 21.0907 22.9902
Pt 9.66144 20.0527 9.44237
Pt 6.54843 11.7297 13.5375
Pt 20.7577 13.3639 10.3176
Pt 11.9314 7.9562 11.0216
Pt 5.08832 12.9645 15.3379
Pt 22.1796 14.2479 21.4402
Pt 13.5214 12.2923 11.48
Pt 19.2748 12.3638 13.3554
Pt 9.2274 11.2364 10.9246
Pt 5.93422 18.0918 14.2687
Au 6.88066 22.1353 15.127
Au 10.5801 19.7262 6.74373
Pt 17.223 6.88238 15.0978
Au 10.2571 23.8914 16.8191
Pt 20.5158 18.8565 16.4148
Au 4.91733 9.78124 12.0881
Pt 11.7826 16.4123 21.115
Au 7.54925 23.8889 17.2323
Pt 20.6918 18.8782 11.9054
Au 26.1121 15.9186 10.7678
Pt 14.9059 10.9641 15.5707
Au 24.4304 9.09752 8.84131
Pt 21.0969 21.7163 12.0014
Au 19.6079 22.3796 22.0659
Pt 22.0858 13.7556 12.6444
Au 9.11032 7.61402 20.4809
Pt 16.3856 21.1756 12.3265
Au 22.2892 21.4959 20.7115
Pt 17.6467 22.4641 19.8236
Au 18.9918 13.1823 25.2189
Pt 6.73983 18.7004 18.5302
Pt 10.68 20.5463 21.3175
Au 17.1564 5.51688 10.7298
Au 12.4304 19.5978 24.9827
Pt 18.7726 17.7166 20.7273
Au 11.3797 26.1231 18.1663
Pt 10.1202 14.522 20.0579
Au 14.587 14.0653 4.67389
Pt 14.2669 21.58 16.7821
Au 21.6333 13.0937 24.0223
Pt 4.76195 16.4191 12.5195
Au 26.6241 18.4996 18.3429
Pt 9.90668 10.0767 19.6977
Au 17.2302 4.47112 13.3012
Pt 8.83563 21.419 16.9948
Au 25.6451 21.7515 14.3493
Pt 7.75711 12.7556 15.7342
Au 21.5485 24.4477 11.6264
Pt 8.59058 13.2751 9.07571
Au 10.8564 10.1725 6.2458
Pt 7.70046 17.6538 9.91034
Au 3.50007 14.9521 16.7489
Pt 23.6415 12.6341 10.6639
Pt 11.7877 10.3328 14.8619
Au 5.302 21.1691 12.9547
Au 4.43471 11.7221 10.0591
Pt 12.5775 14.6204 12.0309
Au 24.1007 10.5501 6.55751
Pt 10.3911 22.3716 19.0889
Au 16.8457 23.0867 6.44752
Pt 16.0681 12.042 9.75993
Au 18.5942 19.9029 26.7005
Pt 9.20245 14.4232 17.3807
Au 8.71175 15.8411 24.4839
Pt 21.5949 12.9935 19.1195
Au 7.40866 13.8983 23.1608
Pt 12.4282 20.2042 8.59969
Au 11.0276 25.1249 14.4696
Pt 17.0508 20.0528 20.4097
Au 3.69191 16.021 21.2975
Pt 13.9951 14.8841 23.8627
Au 4.62287 18.3941 20.6969
Pt 16.2814 12.7474 19.0663
Au 8.22188 24.6736 14.4794
Pt 14.9621 14.124 13.4182
Pt 13.2406 17.6638 19.286
Au 25.756 10.6715 18.9835
Au 12.5097 5.98344 7.94449
Pt 18.6768 7.86264 10.4301
Au 16.5858 25.1005 19.7916
Pt 11.7628 19.8682 18.9383
Au 10.3403 3.67517 14.3834
Pt 18.7243 17.2583 10.9716
Au 13.263 5.16461 19.1982
Pt 11.0192 12.4202 18.9671
Au 3.45775 19.116 13.2532
Pt 12.1532 12.7363 23.928
Au 22.3908 10.6899 22.8322
Pt 17.2711 11.2727 17.038
Au 20.5531 17.0665 6.6735
Pt 14.1976 18.9454 17.1306
Au 16.1815 20.8775 25.7071
Pt 8.32922 7.55737 13.4111
Au 17.5212 6.2094 8.13198
Pt 18.4364 18.8267 18.2719
Au 25.4394 8.78104 16.9079
Pt 15.2361 13.8322 21.4316
Au 19.1316 25.1882 17.8705
Au 12.7967 8.27211 6.32352
Pt 20.4568 20.2589 14.2432
Au 7.45906 6.97739 15.9679
Pt 14.0523 19.4285 12.6622
Au 17.8886 15.6758 25.7877
Pt 15.4454 15.307 18.7901
Au 6.2176 16.6244 7.49964
Pt 8.68158 20.3145 19.4288
Au 2.56942 18.6394 16.5165
Pt 15.8118 11.1817 21.1407
Au 21.6329 14.5199 5.71056
Pt 21.3384 11.16 17.1743
Au 8.08475 20.9216 22.1386
Pt 17.2207 8.86959 21.7602
Au 8.31516 18.4337 23.6018
Pt 8.44275 16.4696 19.106
Au 22.1807 21.6791 7.76876
Au 16.8219 11.1944 5.39247
Pt 13.17 19.3561 21.4757
Pt 16.8077 17.384 14.169
Pt 22.3173 18.1984 14.1274
Pt 17.8947 11.4432 22.9064
Pt 17.1207 13.04 12.1315
Pt 15.7896 14.4162 8.34157
Pt 6.77737 12.3084 10.9437
Pt 8.21256 15.017 14.5787
Pt 14.8687 12.4652 6.91912
Pt 19.9918 18.5749 24.6018
Pt 15.321 11.2717 13.0198
Pt 11.6505 10.5217 10.1874
Pt 17.9954 14.9134 14.403
Au 6.5099 11.7763 8.14429
Au 25.7935 18.7933 11.0475
Pt 19.2371 23.3605 15.7382
Au 16.8586 17.9348 27.068
Pt 12.9034 17.5668 7.67996
Au 12.5412 2.4072 15.284
Pt 7.49507 16.5237 12.4182
Au 20.0083 5.74229 9.56291
Pt 9.40855 18.6342 17.4405
Au 20.0263 10.8328 24.3422
Pt 13.106 9.84852 12.5991
Au 21.4464 5.68748 16.6043
Pt 19.1994 24.4423 13.1782
Au 22.2705 7.43294 9.31124
Pt 13.1569 25.5763 16.2238
Au 12.6526 16.4915 25.9596
Pt 9.58362 7.22371 17.7165
Au 24.1395 12.7795 22.5963
Pt 23.9337 12.15 17.6535
Au 8.93316 10.2035 8.47178
Pt 21.5487 8.46158 16.2201
Pt 18.7162 21.9319 13.3512
Au 8.63665 11.8683 6.39373
Au 21.7094 24.3601 16.888
Pt 23.2424 19.7207 11.8645
Au 6.57945 11.4276 22.3825
Pt 17.3156 18.8188 24.5321
Au 18.2381 24.3884 8.35674
Pt 9.73496 22.3862 14.5736
Au 10.2669 5.19719 19.2297
Pt 20.5852 9.58542 9.76617
Au 19.9873 9.18608 22.1382
Pt 12.9559 5.73727 11.9475
Au 17.7053 25.6445 15.4121
Pt 12.1011 21.7158 12.9464
Au 2.11503 16.4482 12.5514
Pt 9.67203 20.963 12.2452
Au 16.472 25.6701 9.98327
Pt 9.13106 11.2545 14.0241
Au 11.1983 10.0742 24.0999
Pt 15.627 9.84135 23.5893
Au 8.72074 4.72943 16.8745
Pt 15.0368 8.59875 14.1288
Pt 13.4606 17.5653 23.4086
Au 10.9221 8.32604 8.37732
Au 18.8523 4.63535 17.6133
Pt 6.22698 11.1511 17.1472
Au 8.26281 5.59633 11.3919
Pt 11.8738 14.0039 16.8438
Au 9.0391 8.16978 10.5187
Pt 19.4473 14.8419 12.1001
Au 5.12292 13.8488 21.7882
Pt 13.5599 8.21261 8.94906
Au 27.4323 14.5904 12.8346
Pt 17.1495 23.4919 17.4886
Au 24.7567 17.6088 16.5374
Pt 23.0978 18.1252 18.7744
Au 12.5803 4.00826 10.0135
Pt 11.5975 8.9097 21.7216
Au 26.5436 13.2108 18.1354
Pt 17.9022 23.1193 11.0015
Au 15.0581 22.735 23.8908
Pt 12.7513 15.3584 14.5565
Au 25.3411 9.41825 13.804
Pt 10.1095 19.8622 14.8731
Pt 18.0551 9.86366 8.73035
Au 20.3136 25.9884 15.3247
Au 27.2223 18.4396 15.5255
Pt 12.2401 6.63572 17.019
Au 22.1512 5.49979 11.2399
Pt 11.8643 16.9673 11.09
Au 14.4295 26.344 11.7366
Pt 8.71163 15.8266 8.137
Au 22.4429 18.0154 23.8836
Pt 16.3291 18.5311 11.4921
Au 5.75119 12.2007 19.7599
Pt 18.0475 21.728 8.54325
Au 24.9653 19.0237 14.0621
Pt 6.09006 14.1701 12.7999
Au 4.80148 9.81165 18.9383
Pt 13.6325 24.5872 13.6042
Au 13.7561 25.4249 9.15988
Pt 16.3853 8.8281 16.6044
Au 24.6328 20.1148 19.4267
Pt 19.2229 7.26029 16.8744
Au 19.5385 17.4375 26.8578
Pt 14.6948 20.0532 23.5458
Pt 10.9445 13.3338 10.4816
Au 15.2975 26.4895 14.5318
Au 19.1108 24.593 20.5439
Pt 22.632 11.1225 8.83938
Au 9.23765 11.9808 24.1241
Pt 12.4231 7.71692 14.1754
Au 9.01995 26.2258 16.5674
Pt 19.1341 9.65994 17.7956
Au 3.83066 12.1145 17.5361
Pt 23.0645 19.6341 16.3866
Au 25.3119 21.3882 11.6618
Pt 24.2451 13.0129 14.9494
Au 9.92414 14.2184 6.2077
Pt 14.6081 13.3172 17.0006
Au 21.4827 20.5278 23.2013
Pt 13.0947 12.6459 14.5114
Au 19.3754 10.1306 6.161
Pt 7.29018 19.4557 16.0473
Au 15.1565 15.8278 26.5394
Pt 16.9268 14.1289 6.01374
Au 14.3666 24.2288 21.5038
Pt 19.4294 12.7566 15.9834
Pt 10.9336 18.3314 22.7589
Pt 19.7051 10.1925 15.2191
Pt 20.8351 16.5845 22.2075
Pt 5.79198 18.631 11.6609
Pt 10.3932 9.26435 12.6743
Pt 24.7347 14.2701 12.5994
Pt 15.314 23.686 11.5298
Pt 7.61305 9.76281 12.2928
Au 27.2546 20.031 13.118
Pt 18.8663 7.82133 19.8071
Au 25.0514 10.1903 21.6576
Pt 14.7702 6.47611 16.1486
Au 8.59918 22.9868 10.0314
Pt 7.42075 14.4048 20.3961
Au 19.0054 15.4749 5.07984
Pt 23.5086 10.3288 15.671
Au 22.5876 25.4323 14.0937
Pt 8.75765 17.7212 14.419
Au 12.7983 27.2488 13.8355
Pt 13.6223 12.3286 19.8479
Au 10.7903 16.9146 6.20356
Pt 11.767 19.5682 11.2366
Au 7.10955 14.1071 6.77046
Pt 16.1349 16.7484 9.62527
Au 3.06574 18.1138 10.7914
Pt 16.9752 21.9071 15.3844
Pt 8.33681 9.61788 17.5371
Pt 11.1604 22.0331 10.3116
Au 10.1999 22.3441 7.79217
Au 13.3344 8.3852 23.76
Pt 18.388 10.6794 20.2656
Au 5.6198 7.87184 13.983
Pt 13.5996 15.8464 9.49922
Au 19.496 5.64888 12.2537
Pt 12.7057 5.12391 14.6582
Au 14.6981 5.71816 9.52049
Pt 12.6377 9.97802 19.5422
Au 3.20729 14.4388 13.9613
Pt 12.4437 22.9932 15.2861
Au 18.1044 8.75655 24.2656
Pt 23.1554 15.5458 14.3922
Au 11.7073 7.41148 19.5864
Pt 24.2991 13.8389 19.7112
Au 23.1276 22.4895 10.2734
Pt 7.58331 18.3604 20.9453
Au 6.20664 21.4432 17.7603
Pt 7.65439 19.9981 13.4776
Au 8.05003 5.01091 14.0557
Pt 15.276 18.8515 7.68177
Pt 16.6339 23.8972 13.6674
Au 15.7118 7.15591 23.2797
Au 10.8484 12.2633 8.00609
Pt 11.1356 11.6642 21.5847
Au 16.6697 4.39291 16.0519
Pt 17.0525 15.7717 21.2294
Au 18.3264 6.60842 22.491
Pt 17.4262 14.1774 17.0994
Au 4.91827 16.6114 9.78959
Pt 25.6942 16.0985 14.5145
Au 9.00005 9.78602 22.3682
Pt 16.139 18.3731 22.1211
Au 19.681 7.79382 7.77428
Pt 19.5803 14.3099 22.8316
Au 27.1251 16.0203 17.2484
Pt 15.929 16.5627 24.001
Au 7.2297 9.85713 20.1531
Pt 14.6491 7.77815 11.5771
Au 23.1847 6.19072 20.1648
Pt 15.5221 16.4623 6.79243
Au 15.9896 4.39008 18.7994
Pt 22.5975 17.8089 10.1369
Pt 15.7715 23.2362 9.03624
Au 3.85036 14.1912 19.334
Au 5.11039 14.0483 8.63734
Pt 14.5568 22.0692 13.8755
Au 8.62488 25.4474 11.7623
Pt 3.45813 16.974 14.7885
Au 12.6261 3.10097 12.6873
Pt 23.0154 21.0362 14.0966
Au 12.6979 22.1839 20.4423
Pt 11.168 9.2676 17.4739
Au 24.9986 17.4035 23.3512
Pt 23.2771 11.4521 20.3011
Au 14.1999 10.347 5.38274
Pt 21.5558 16.3533 12.1788
Au 17.2074 11.0243 25.4535
Pt 17.7043 18.9047 8.71373
Au 23.1678 15.3557 23.696
Pt 7.4988 20.3326 10.8503
Au 9.90611 23.0383 21.6822
Pt 24.9846 16.3518 19.0481
Au 10.6479 14.307 25.651
Pt 14.4256 10.1823 10.2782
Au 4.66602 20.173 15.5999
Pt 21.9765 9.2941 13.6856
Au 27.1298 15.1724 19.9045
Au 17.2638 8.48077 6.42717
Pt 12.9985 22.8925 8.75801
Au 25.9436 17.9267 20.9078
Pt 16.9128 15.7798 12.1153
Au 17.1745 20.4578 6.32225
Pt 10.4536 13.5557 14.6744
Au 15.0897 7.0568 7.05805
Pt 22.3994 15.489 18.942
Au 9.2451 24.8761 19.2419
Pt 11.466 15.8335 23.672
Au 11.2405 11.7826 26.1999
Pt 12.6127 13.9861 21.7321
Au 13.9252 25.6031 19.099
Pt 19.0893 12.5591 18.6574
Pt 19.579 20.5786 20.1092
Pt 7.62353 16.6652 16.6513
Pt 19.6881 17.3032 13.8534
Au 10.7089 24.7347 9.60886
Pt 15.0529 5.98057 13.5435
Au 5.95217 22.3058 10.2353
Pt 14.3886 20.2986 19.3331
Au 16.2514 13.4365 26.1002
Pt 21.4651 20.1431 18.497
Au 23.8616 19.5251 21.9819
Pt 17.0352 14.1934 23.5026
Au 11.7127 24.69 20.4765
Pt 10.4593 16.2128 15.7568
Pt 10.0445 13.9813 22.6371
Pt 12.7717 23.9421 11.25
Au 5.73368 19.2114 8.89024
Pt 13.3231 14.8862 6.91382
Au 10.3008 3.84912 11.6589
Pt 14.5275 8.8228 21.0959
Au 27.2819 17.3883 12.8265
Pt 8.24067 12.2439 18.535
Au 4.47449 10.38 14.9179
Pt 16.2095 8.06709 9.50629
Au 6.99709 7.55399 18.6675
Pt 13.5526 8.8832 16.4289
Au 24.6122 14.8379 16.902
Pt 16.4705 20.5322 17.7366
Au 22.9209 16.1226 7.62083
Pt 15.5793 15.3426 15.5953
Au 26.0971 11.2524 16.0675
Pt 6.94765 14.9612 10.2983
Au 15.013 3.93984 11.5858
Pt 22.1719 13.7793 16.5338
Pt 19.2995 9.7221 12.4325
Pt 9.07121 16.3379 21.8493
Au 23.7948 7.47508 12.2629
Au 25.3033 11.7675 8.59817
Pt 23.1721 9.54807 18.2883
Au 13.6057 16.8659 4.94301
Pt 11.0001 16.4239 18.3175
Au 23.3724 22.0954 18.0775
Pt 16.6283 9.0181 19.2317
Au 6.22477 14.1527 17.6653
Pt 12.9031 14.7294 19.2297
Au 4.10308 20.5011 10.6687
Pt 19.5865 7.74842 14.2041
Au 12.4077 22.0769 6.17818
Pt 14.7543 18.3805 25.5676
Au 21.8822 9.1842 7.17049
Pt 14.1296 17.5775 14.7692
Au 7.53859 22.8292 12.5248
Pt 13.5109 16.1819 17.0423
Au 26.2873 12.5871 20.8879
Pt 10.266 6.24191 15.2962
Au 13.6384 10.7339 25.3473
Pt 9.7164 8.80288 15.3101
Au 11.7952 24.595 7.16378
Pt 11.2215 11.9758 12.6838
Au 10.0868 20.5877 23.9847
Au 6.36961 7.48612 11.4103
Pt 14.7366 21.3332 7.59967
Au 17.28 26.2708 12.5297
Pt 21.0236 7.83462 11.726
Au 7.71358 22.7674 19.8424
Pt 15.117 23.9064 15.9086
Au 10.38 17.8435 25.3443
Pt 15.9125 17.9336 19.4631
Au 21.7373 11.8045 6.0539
Pt 18.0399 14.349 9.8393
Au 26.9131 13.821 15.443
Pt 18.1322 19.4739 15.6403
Au 20.6162 22.951 18.989
Au 7.56231 21.1554 8.19815
Pt 12.9975 10.6283 7.88064
Au 8.21915 18.5431 7.36666
Au 12.3844 12.4693 5.70078
Pt 15.5724 10.0328 7.76331
Au 22.7151 8.68375 21.0422
Pt 21.2947 23.156 14.1506
Au 4.14872 19.7121 18.3793
