561
Atoms. Timestep: 20648
Pt 20.582 18.0625 7.5717
Au 24.2241 9.95426 10.4665
Pt 19.8555 15.224 16.7724
Au 14.7662 10.9861 25.7887
Pt 16.4999 12.4338 17.8692
Pt 12.7636 10.8305 8.11973
Au 7.08108 6.95052 10.9817
Pt 20.7252 23.4445 14.1854
Au 20.1669 25.4553 12.3326
Pt 16.8066 13.5689 14.5811
Au 5.90753 6.10945 13.2968
Pt 17.0339 8.52956 12.5978
Au 23.4731 16.1226 21.6589
Pt 10.2817 7.30386 18.7557
Pt 8.63541 19.6384 12.4652
Au 24.8612 9.10389 15.9904
Au 25.7097 16.7921 12.0623
Pt 14.354 18.3955 21.9045
Au 10.0276 26.1785 17.5561
Pt 17.9804 18.6141 6.75119
Au 25.2774 9.68879 13.0502
Pt 24.0402 18.0931 16.3886
Au 24.5538 19.3927 11.286
Pt 16.1171 16.8712 20.2564
Au 9.07685 19.658 23.8773
Pt 10.5348 16.0784 19.4802
Au 11.4031 19.694 25.3472
Au 18.9541 13.5264 26.008
Pt 21.3081 18.0277 15.3379
Au 19.0512 20.189 21.7365
Pt 17.4476 11.0368 13.699
Au 25.1973 14.7441 10.2959
Pt 20.3512 20.0053 11.3049
Au 10.2849 7.04803 21.9158
Au 19.1903 7.04346 8.61755
Pt 12.7619 23.4865 18.5076
Pt 19.4107 8.06823 11.3412
Pt 10.7411 10.7215 12.3046
Pt 11.5547 5.37683 17.5321
Pt 16.4391 26.5485 15.1808
Pt 10.5194 19.039 18.7747
Pt 6.91121 13.9703 20.3048
Au 13.4614 3.32575 12.335
Pt 16.0291 12.0329 22.6735
Au 8.20429 15.9961 24.6985
Pt 10.3094 11.5144 15.1335
Au 13.4725 3.80005 16.7311
Pt 16.5024 14.5636 22.1687
Au 18.008 6.03763 21.7247
Pt 14.0817 16.6217 12.8871
Au 4.62881 12.5732 16.6307
Pt 15.5107 12.4224 12.2031
Au 10.8101 11.2141 4.21017
Pt 12.0161 19.9492 22.7801
Au 23.8017 14.4212 12.8473
Pt 22.2071 12.5025 14.4521
Pt 16.1288 15.0162 12.3626
Pt 18.7972 15.4947 21.6362
Au 9.59682 8.78952 23.9105
Au 22.6676 11.392 23.156
Pt 24.8516 12.1724 13.9568
Au 15.7556 25.3525 10.3538
Pt 17.3812 11.6634 9.80419
Au 11.7802 7.09389 24.2047
Pt 14.6694 10.2895 13.462
Au 17.9507 2.91239 17.8643
Pt 11.6618 14.0682 15.3073
Au 9.17393 12.5965 21.7716
Pt 22.2676 19.0443 9.71949
Au 14.2318 13.3087 26.9952
Pt 18.5903 18.0056 20.1643
Au 17.8201 14.529 4.31269
Pt 14.3318 6.56036 16.2803
Au 6.22898 19.1324 19.5731
Pt 20.1198 9.40578 20.5804
Au 26.501 11.1642 15.8517
Pt 9.14762 14.193 16.3315
Au 17.7259 5.97677 10.581
Pt 16.5986 12.9084 25.0601
Pt 8.02342 17.2068 13.015
Au 9.85014 11.6543 24.5572
Au 5.14394 13.3472 13.9568
Pt 17.6469 25.5867 17.3665
Au 6.38024 8.81011 12.8687
Pt 18.8798 10.6359 11.5767
Au 16.1889 17.2576 27.0565
Pt 7.37571 13.2056 11.9455
Au 22.5802 21.2871 12.3735
Pt 16.89 17.5448 13.0953
Au 7.45554 23.9081 13.7076
Pt 15.4357 10.107 10.9393
Au 15.5809 22.2348 24.6877
Pt 10.1443 16.1317 14.3472
Au 6.59866 7.39862 17.9561
Pt 8.91898 7.49954 16.4175
Au 16.844 21.3132 4.8953
Pt 12.6932 17.7275 18.3163
Au 10.4111 14.0552 4.42804
Pt 23.9983 14.2305 15.657
Au 13.6603 2.04536 14.6598
Pt 13.4111 18.787 11.3818
Au 21.0861 15.1716 26.5374
Au 7.17352 22.6371 16.8943
Pt 8.24318 18.3516 17.7429
Au 6.20015 16.6118 6.78394
Pt 20.3697 17.3697 10.2768
Au 21.6951 23.7513 18.879
Pt 16.5624 23.218 9.01457
Au 6.97401 20.263 9.68529
Pt 21.1401 14.57 22.3695
Au 21.0914 18.9415 5.20273
Pt 13.0417 20.0374 20.2064
Au 10.8393 22.8369 8.14267
Pt 21.044 11.9808 9.94436
Au 18.2499 26.8423 10.6731
Pt 16.3773 24.5095 19.841
Au 5.55095 14.9817 8.88346
Pt 22.2226 18.6511 12.7699
Au 19.9255 10.8359 24.0201
Au 18.7015 16.3121 26.8077
Pt 11.8545 15.507 21.9924
Au 19.5022 16.6992 5.25632
Au 10.1173 14.1452 26.1028
Pt 14.4453 15.9214 22.8665
Au 14.0688 28.0111 14.0577
Pt 13.6029 21.5046 12.0414
Au 6.82506 9.62045 10.246
Pt 13.6482 8.71211 9.37919
Au 11.1439 16.7785 4.87446
Pt 10.2651 12.1577 8.5304
Au 10.9005 21.6313 19.0529
Au 23.715 7.15588 17.4869
Pt 14.4251 8.87785 19.95
Pt 14.2154 12.4786 6.63413
Pt 13.9731 25.5605 15.4475
Pt 9.38998 23.1059 15.2184
Pt 17.3566 25.3473 12.7756
Pt 13.1197 20.8336 14.6838
Pt 13.9938 19.966 24.4344
Pt 10.9989 13.2125 10.9091
Pt 8.61875 18.0196 10.2629
Pt 20.0399 15.5811 7.83597
Pt 19.5175 19.5692 16.6038
Au 6.02565 16.566 20.3783
Au 6.38721 9.17876 20.2738
Pt 18.7011 17.1857 15.507
Au 8.5561 16.1278 5.6119
Pt 6.89276 15.8663 11.0303
Au 10.7242 3.94968 12.8646
Pt 16.984 6.50871 15.2946
Au 11.8864 27.2932 15.7219
Pt 20.2176 22.5674 11.6572
Au 7.23635 17.7211 22.7346
Pt 18.3495 16.0223 11.3893
Au 12.5893 15.2273 3.19076
Pt 22.9148 17.5665 18.9018
Au 11.8878 9.74564 25.0841
Pt 10.9416 9.83413 9.72519
Au 7.88702 25.0835 16.3236
Pt 19.6042 15.5939 24.2634
Au 12.3959 19.2079 3.90722
Pt 12.3163 20.8486 9.7315
Au 12.719 26.2686 18.2965
Pt 9.23212 22.1907 12.5428
Pt 21.1933 7.67679 13.3601
Au 23.9029 12.368 9.12483
Au 17.9309 3.91525 15.0443
Pt 12.2542 12.4827 25.4032
Au 4.90501 14.099 11.3807
Pt 11.6825 7.45529 15.7237
Au 21.2252 6.17196 18.1978
Pt 7.65716 11.4265 19.8618
Au 7.96222 10.8261 8.04507
Pt 13.0104 16.3891 10.3946
Au 20.198 8.79352 6.87589
Pt 22.0908 19.6498 17.5324
Au 17.9663 20.8648 25.6222
Pt 14.3633 7.56239 13.8287
Au 21.7044 8.94349 22.6071
Pt 17.3063 17.5959 17.7117
Au 6.36708 20.0675 16.9918
Pt 10.4052 20.7146 14.4245
Au 11.7525 7.9439 7.60494
Pt 12.9979 8.49877 22.3263
Au 13.3807 6.02963 8.94634
Pt 8.87143 11.5351 17.3711
Pt 18.1281 10.7437 21.8403
Au 15.5772 25.076 7.29525
Au 16.5469 7.37212 23.5842
Pt 19.363 22.5567 8.6738
Au 15.2134 27.0034 19.4507
Pt 20.4651 11.9757 21.567
Au 8.47456 23.0746 10.0807
Pt 18.0536 16.9456 8.86076
Au 5.48032 11.3302 12.0286
Pt 8.5178 9.21246 18.4634
Au 16.3993 23.8753 15.2262
Pt 13.7694 14.0591 11.1651
Au 12.9542 23.5925 6.15594
Pt 14.8788 12.4734 9.33769
Au 21.654 7.67472 9.64965
Pt 16.3065 8.95831 15.1809
Au 24.7257 19.635 18.5068
Pt 13.4518 24.1858 11.3973
Au 21.3141 13.1983 24.6468
Pt 12.425 15.0276 17.8464
Au 8.71771 15.4988 21.4351
Pt 11.8956 15.119 12.7128
Pt 15.7796 11.2929 20.163
Au 5.3892 10.6486 14.7647
Au 11.6277 24.6068 16.085
Pt 8.09832 10.8795 13.1756
Au 5.67033 17.3191 17.4241
Pt 16.611 20.032 23.4558
Au 22.2574 18.2597 23.1155
Pt 14.1272 13.6182 21.3848
Au 9.6095 24.8114 12.0725
Pt 13.028 10.5254 18.2611
Au 20.6627 6.65128 21.3551
Pt 11.6301 8.98407 20.1313
Au 8.49685 3.20356 15.8987
Pt 21.8234 13.6882 7.95803
Au 8.39477 21.5914 7.73828
Pt 8.81639 11.3988 10.6329
Au 18.338 24.8093 21.9094
Pt 21.7297 13.3579 17.0703
Au 18.2413 21.6498 15.6673
Pt 16.2102 5.77064 12.8056
Au 15.8274 12.6645 4.32053
Pt 18.0961 8.31697 17.0978
Au 18.2161 25.33 8.39304
Au 7.43956 21.0953 14.5731
Pt 21.8621 8.25272 15.859
Au 5.92826 17.7333 9.26858
Pt 13.8645 12.8987 18.7702
Au 18.312 3.91885 12.2338
Pt 19.8786 6.53443 15.6819
Au 8.04609 21.1461 19.2049
Pt 20.3544 10.7005 13.6805
Au 25.5986 12.1421 11.3617
Pt 18.9658 24.1753 19.2721
Au 20.0956 20.0734 24.2284
Pt 21.04 19.1822 20.0568
Au 25.1615 21.3322 13.3144
Pt 15.8003 16.3058 15.1071
Au 13.0997 26.2923 21.1625
Pt 15.2276 19.5566 6.45084
Au 7.85338 18.8156 7.45466
Au 7.51267 20.3374 21.7718
Pt 10.3768 16.657 16.9237
Pt 13.9438 23.9146 20.8017
Pt 12.3967 18.7401 6.47736
Pt 18.9979 8.75757 14.5835
Pt 14.7293 18.9967 13.7518
Pt 16.0433 4.64246 17.0789
Pt 22.9805 11.8592 11.9401
Pt 12.9319 8.8835 11.8899
Pt 12.6274 16.4473 7.76073
Pt 20.9031 11.4392 18.926
Pt 11.4024 7.33978 10.4029
Pt 11.495 23.122 13.5725
Pt 15.8192 19.9053 11.6085
Au 15.4072 19.2435 3.77608
Au 18.9851 8.38311 22.9034
Pt 7.83005 16.5954 15.8127
Au 21.9663 21.9691 9.67093
Pt 20.5214 14.0151 19.7109
Au 6.19854 12.3566 9.51333
Pt 14.4436 21.2979 22.1568
Au 22.3935 5.49192 15.6622
Pt 15.4251 6.7331 21.0277
Au 14.0976 6.09207 23.2553
Pt 11.0126 10.4161 22.3954
Au 10.3196 5.83898 8.5831
Pt 22.8802 14.9777 19.064
Au 25.8089 13.1159 17.7795
Pt 22.7949 13.1515 21.0324
Au 19.4622 21.0584 6.04484
Pt 14.9232 16.3453 17.7376
Au 16.2044 27.941 12.2858
Pt 17.6982 15.1821 6.93048
Au 25.1463 14.2994 20.2326
Pt 17.034 22.9243 17.7555
Pt 15.8015 21.4439 14.0608
Au 12.5542 5.15518 14.4704
Au 20.4385 20.5995 14.07
Pt 14.1852 14.1567 14.0558
Au 20.8143 11.43 6.74361
Pt 10.4555 11.205 19.6478
Au 5.42488 16.1637 13.4106
Pt 11.7414 17.929 20.9975
Au 26.4929 14.2712 12.7851
Pt 15.946 14.4128 19.4569
Au 16.6261 29.0219 14.925
Pt 11.8766 12.8687 22.7737
Au 10.1519 22.03 23.3679
Pt 14.294 18.5205 16.2179
Au 8.6037 18.0273 20.4248
Pt 19.6491 17.9254 13.1206
Au 12.606 6.41379 20.5807
Pt 11.2005 22.8579 10.8937
Au 20.3766 22.9223 21.2916
Pt 22.541 14.2362 10.5083
Au 16.0475 2.75737 13.0421
Pt 10.8348 9.62972 17.0449
Pt 15.8828 9.79231 17.8579
Au 25.1466 18.7051 13.8935
Au 15.834 27.752 9.54491
Pt 9.60788 23.522 17.8636
Au 20.7483 24.5857 9.76663
Pt 16.3833 19.7444 20.9007
Au 12.3762 15.3404 27.1947
Pt 12.4537 13.7264 8.66503
Au 7.28945 13.9592 7.0904
Pt 18.0307 18.1778 24.9233
Au 25.1499 15.8145 17.5649
Pt 9.57912 20.6274 10.1047
Au 17.7193 22.1731 20.5106
Pt 9.07722 9.27656 21.0097
Au 24.0035 7.26996 14.3411
Pt 15.6945 16.9504 10.4837
Au 22.1274 16.0078 6.10503
Pt 11.6686 13.6085 20.1659
Au 9.6881 25.8318 14.5794
Pt 20.6529 13.1675 12.4341
Au 23.3999 22.9964 14.4769
Pt 11.2864 12.6453 17.5425
Pt 19.1112 12.9819 8.12315
Au 20.2212 13.9636 5.63899
Au 6.32559 15.0821 22.8015
Pt 12.2706 15.0602 24.5673
Au 8.03641 4.36921 13.3653
Pt 18.7343 6.39116 13.2682
Au 22.2375 24.4895 16.381
Pt 17.8711 21.3397 10.5995
Au 16.9667 28.1669 17.6621
Pt 7.81779 9.78946 15.712
Au 9.38684 5.69391 11.2486
Pt 18.2881 24.0426 10.7645
Au 23.3051 18.2934 7.07441
Pt 18.9047 7.21795 19.4449
Au 15.0392 2.64514 18.7212
Pt 13.1271 11.1867 20.8517
Au 17.8198 23.4688 6.41148
Pt 12.6345 17.59 23.8913
Au 10.9685 24.8347 19.9516
Pt 12.9789 11.3414 10.7466
Au 8.58738 5.20084 17.934
Pt 9.95406 14.4763 23.5236
Pt 23.2234 16.7954 11.2375
Au 16.6478 14.5373 27.2132
Au 17.3353 8.17894 6.82358
Pt 11.2796 18.3946 9.59554
Au 12.0901 25.8564 13.2095
Pt 21.3325 14.9489 14.6312
Au 19.0119 27.6985 16.0524
Pt 15.6787 17.0981 7.41558
Au 5.91183 7.94975 15.4019
Pt 10.502 20.0701 7.71744
Au 13.6536 26.2448 8.74661
Pt 11.2877 20.2343 12.1143
Au 9.91097 5.32433 15.2322
Pt 12.976 16.3472 15.5181
Au 26.6934 13.7605 15.3686
Pt 14.9312 21.2332 9.51073
Au 15.7063 19.8111 26.3922
Pt 17.1099 17.4649 22.5282
Au 14.4063 4.18447 21.281
Pt 18.3213 10.574 18.9681
Au 21.0928 26.2907 14.7929
Pt 19.9085 14.4166 10.1494
Pt 19.7579 17.7554 22.7124
Pt 16.9259 19.0373 15.4037
Pt 7.67581 14.7419 13.9592
Pt 15.0713 24.9647 17.6844
Pt 10.6507 17.5121 11.9622
Pt 11.5222 22.0409 16.4195
Pt 13.037 11.7709 15.7969
Pt 18.2429 10.8274 16.2584
Au 10.3184 3.01949 17.9337
Pt 9.77658 9.01128 14.2971
Au 13.118 12.6846 4.01691
Pt 15.35 14.8426 5.92387
Au 21.7804 20.5996 7.36547
Pt 13.6138 10.945 23.4141
Au 8.93177 12.2717 5.90422
Pt 10.182 14.622 7.18887
Au 18.6933 27.628 13.4195
Pt 14.7562 15.0009 8.60693
Au 14.4415 8.12014 6.83316
Pt 14.5937 15.5831 25.6504
Au 14.3357 8.49417 24.7247
Pt 14.3048 13.468 24.0727
Au 20.2755 3.95575 16.7457
Pt 19.4309 12.9164 15.0057
Au 25.8322 16.239 14.852
Pt 18.7738 25.151 14.9017
Pt 19.0612 12.9289 17.7189
Pt 16.6474 12.7673 7.23562
Au 18.4516 19.1845 4.24135
Au 23.0745 20.2452 14.9666
Pt 12.5875 12.3457 13.1946
Au 6.09297 18.68 11.8587
Pt 8.47954 13.8318 9.55463
Au 16.7796 4.61206 19.7751
Pt 16.0821 23.2816 22.2476
Au 15.9503 10.2975 5.57704
Pt 15.1101 18.8936 18.7905
Au 5.96418 12.2908 22.0956
Pt 13.6181 16.0052 20.1347
Au 22.4139 10.0544 8.456
Pt 20.4294 8.8349 17.9889
Au 24.2539 20.3511 8.72079
Pt 15.6973 20.803 16.7597
Au 18.3888 11.9649 5.24059
Pt 10.0593 20.205 21.188
Au 4.96378 12.1066 19.4834
Pt 23.2868 16.6685 14.1392
Au 9.7107 19.0729 5.29941
Pt 9.19974 20.7424 16.8401
Pt 16.1086 7.15721 18.3474
Au 6.21001 18.5226 14.7226
Au 14.0046 17.1143 5.12949
Pt 8.12297 16.162 8.52351
Au 7.03391 5.50189 15.7157
Pt 11.4818 19.0829 16.3125
Au 24.2085 14.9553 7.78234
Pt 13.8988 9.19261 16.1632
Au 15.2608 15.172 3.27186
Pt 6.92407 13.1575 17.7927
Au 15.928 2.17833 16.0263
Pt 22.8688 9.89361 14.0409
Au 10.0286 17.3744 23.0471
Pt 14.9125 25.6489 13.0149
Au 12.6273 1.53354 17.4674
Pt 6.00655 14.88 16.0301
Au 25.3788 10.4436 18.3971
Pt 21.0225 16.5502 20.5428
Au 11.4815 25.4352 10.1508
Pt 18.4579 15.5448 19.0671
Au 11.8548 4.7482 22.4206
Pt 12.0293 22.2658 21.3505
Pt 19.8361 9.8165 9.27522
Au 25.3181 17.1146 19.8862
Au 12.4557 3.42236 19.5621
Pt 7.82984 15.7582 18.3846
Au 15.4443 23.7618 4.85212
Pt 15.519 9.46431 22.3356
Au 17.1683 10.1669 24.4507
Pt 15.5726 11.545 15.6201
Au 22.5404 7.93809 19.9458
Pt 15.8757 22.9407 11.7462
Au 18.3545 22.3237 23.3633
Pt 21.0632 15.8309 12.2821
Au 13.6181 27.1827 11.2532
Pt 17.0587 14.364 9.67294
Au 14.4848 27.8562 16.791
Pt 22.3268 16.3664 8.8448
Au 22.5226 23.9807 11.9527
Pt 18.7141 15.2417 13.8689
Au 23.705 19.0518 21.0035
Pt 9.09008 18.6436 15.0389
Au 22.6568 5.44518 12.8833
Pt 18.1723 22.8433 13.2706
Au 23.7425 22.0454 17.1912
Pt 21.2635 21.8321 16.2994
Au 18.0617 26.7316 19.8409
Au 13.3933 17.9642 26.4983
Pt 22.8669 9.72578 17.9663
Au 25.5334 20.3854 15.999
Pt 9.78744 13.2199 13.369
Au 13.9161 17.428 2.50655
Pt 19.4193 19.8878 8.85226
Au 20.5842 25.6885 20.5665
Pt 21.0102 10.8164 16.2467
Au 6.02475 10.3139 17.6519
Pt 22.7329 10.5246 20.5833
Au 8.98298 8.20432 8.85491
Pt 18.0646 13.0051 20.4181
Au 13.0527 10.1553 5.50721
Pt 12.2239 9.68015 14.271
Pt 16.4264 19.1247 9.02164
Pt 12.8897 7.72118 18.1417
Pt 23.497 12.3488 18.762
Au 15.8086 26.0374 21.9383
Pt 17.3523 21.0571 7.66541
Au 10.6487 16.9649 25.7397
Pt 14.6344 13.9867 16.5476
Au 7.75744 10.522 22.9066
Pt 17.1621 8.69184 20.4798
Au 13.2824 5.95313 11.8921
Pt 10.1524 17.4004 7.42663
Au 4.39738 14.3102 21.071
Pt 18.0105 20.1376 13.1691
Pt 15.5363 10.2017 8.17999
Pt 23.8015 11.5575 16.3021
Au 23.818 13.8751 23.2784
Pt 18.1098 13.1887 12.0087
Au 9.28257 22.9166 20.9433
Pt 13.9807 23.3949 13.9124
Au 20.0602 21.4852 18.7965
Pt 14.1997 5.40101 18.8212
Au 13.499 23.5296 8.84414
Pt 8.32008 7.01211 13.6943
Au 20.5081 5.62052 11.2604
Pt 15.2723 7.41838 10.9679
Au 9.13753 8.62356 11.5837
Pt 18.1671 10.555 7.46755
Au 15.2948 4.53486 10.594
Pt 11.0936 7.0619 13.0823
Au 7.67935 13.205 24.1464
Pt 20.2836 17.4883 18.0298
Au 23.4488 7.77995 11.762
Pt 7.42668 12.4342 15.2181
Pt 13.8572 18.6758 8.74797
Pt 13.062 21.0684 7.32397
Au 11.2012 21.3925 5.44292
Au 24.4653 22.1489 10.7679
Pt 15.0641 4.51467 14.6349
Au 13.9116 21.3997 4.66407
Pt 10.6116 15.6989 9.59468
Au 20.7122 17.7543 25.4913
Pt 11.6117 12.4452 6.34966
Au 16.0265 6.57213 8.50937
Pt 15.2398 22.3162 6.95297
Au 17.6814 20.1759 18.516
Pt 18.081 18.6391 10.9469
Au 16.7635 17.0674 4.76686
Pt 15.39 17.8044 24.4923
Au 22.4428 15.8921 24.371
Pt 22.3836 16.0789 16.7732
Au 11.1672 2.80308 15.3874
Pt 12.0643 18.311 13.9274
Au 4.86511 14.8318 18.4739
Pt 9.29499 15.2113 11.7434
Au 14.0817 24.5446 23.4437
Pt 18.3343 5.61697 17.533
Au 11.7112 4.40295 10.3529
Pt 12.7431 14.728 5.88381
Au 20.3689 26.1265 17.8133
Au 21.7813 20.7512 22.1552
Pt 18.6557 13.2093 23.2158
Au 10.2969 9.98582 6.73804
Pt 17.3536 8.79901 9.67218
Au 8.03541 6.86981 20.2212
Pt 17.02 15.5495 24.5848
Au 22.7623 21.3366 19.6567
Pt 21.5524 9.72178 11.4898
Au 6.72915 21.6364 11.9608
Pt 14.1418 22.8228 16.4234
Au 10.2154 4.89226 20.1226
Pt 9.29627 13.6652 19.1017
Au 15.0577 21.8903 19.3932
Au 12.7183 22.3299 24.1859
Pt 17.214 14.9076 16.8325
Au 20.4575 4.39348 13.953
Au 24.8445 17.4722 9.21193
Pt 13.199 20.5697 17.7118
Au 19.5497 4.55459 19.6928
Pt 19.595 23.681 16.8308
Au 11.5097 24.4679 22.6125
