561
Atoms. Timestep: 20612
Pt 6.74189 10.2302 19.9206
Au 5.2433 8.43813 15.9675
Pt 8.90537 7.86182 10.2226
Au 13.5091 3.02006 18.3709
Pt 7.90572 8.54489 14.823
Pt 6.22784 12.3399 18.0375
Au 8.0877 13.4223 6.63322
Pt 7.76446 14.2874 9.1316
Au 5.18125 8.80665 13.2356
Pt 6.00253 13.9475 15.855
Au 4.07658 17.7255 13.617
Pt 6.41023 10.7665 14.5089
Au 16.5931 3.79828 12.1068
Pt 6.59805 18.7263 17.5955
Pt 6.89754 11.3504 22.3588
Au 6.07256 12.1549 8.98896
Au 5.10906 14.7709 8.84553
Pt 8.76877 17.6457 9.03134
Au 4.25262 16.1764 11.1952
Pt 5.50511 13.6941 11.2375
Au 6.94238 23.4617 14.2833
Pt 4.71335 16.2825 15.9664
Au 10.3998 16.914 25.2
Pt 7.39144 17.2608 19.5691
Au 4.94646 12.3304 20.4123
Pt 10.0677 14.3015 24.531
Au 8.38147 18.413 6.37379
Au 8.16545 25.7898 13.6081
Pt 6.58087 16.7121 9.96406
Au 5.21989 20.9216 17.8716
Pt 7.02515 16.0438 17.1526
Au 6.92298 22.994 16.9318
Pt 9.02601 21.7227 15.1901
Au 4.35587 12.4119 13.4477
Au 10.6016 26.3136 12.4141
Pt 8.52031 20.4155 17.3288
Pt 11.0519 7.35538 11.6486
Pt 8.67709 6.91509 12.7931
Pt 9.16851 10.5143 21.0813
Pt 11.9005 4.74678 16.7905
Pt 13.4825 5.45036 14.6514
Pt 5.84643 11.108 11.6745
Au 11.1518 7.11342 6.4695
Pt 11.797 9.62268 6.34761
Au 4.4332 11.6317 16.1013
Pt 8.81796 5.48523 14.9795
Au 9.84817 4.53745 12.4825
Pt 11.4177 7.93727 9.01802
Au 11.4245 3.5578 14.4214
Pt 7.0613 9.89689 17.1051
Au 9.6911 10.1012 16.147
Pt 10.082 7.45679 16.4014
Au 9.17909 6.3703 8.10308
Pt 12.7986 7.2212 16.6202
Au 20.1299 4.40386 16.847
Pt 8.80481 8.55799 18.8472
Pt 9.80395 8.5298 23.125
Pt 8.78587 11.6012 8.87949
Au 11.9733 11.6192 4.46497
Au 6.39726 7.20802 11.3492
Pt 9.35371 9.08363 7.78134
Au 7.37635 10.6906 6.89501
Pt 9.93807 14.9497 10.4109
Au 7.57506 13.1688 24.521
Pt 7.01394 13.1785 13.5527
Au 7.67313 9.39712 12.2681
Pt 9.89546 10.0714 11.0067
Au 4.1499 14.1815 17.8765
Pt 6.16689 14.7652 19.492
Au 5.66887 16.5972 21.4248
Pt 8.42189 13.9497 18.1949
Au 4.57873 10.1813 18.3655
Pt 7.65843 12.7189 20.3578
Au 7.738 8.16512 21.3887
Pt 10.8571 15.9752 22.6857
Au 8.05475 6.02789 19.4346
Pt 12.4217 6.58635 21.286
Au 15.9277 4.15544 19.4233
Pt 9.29787 13.0124 22.4696
Pt 9.63359 15.7096 7.62145
Au 6.99088 9.58462 9.50733
Au 10.9705 12.5294 10.9586
Pt 6.53463 17.3274 12.4906
Au 12.0698 15.9727 12.1964
Pt 7.61538 15.0505 11.7336
Au 8.09883 12.3997 11.2086
Pt 6.45626 18.035 15.0507
Au 9.09825 11.3614 13.5581
Pt 7.58566 15.7932 14.3469
Au 8.12737 12.3472 15.9941
Pt 8.346 19.8284 19.8667
Au 4.73436 16.9975 18.6393
Pt 8.83451 17.8816 16.2654
Au 6.29373 14.0673 22.2883
Pt 10.5292 18.6542 23.0691
Au 5.69561 19.3295 20.1367
Pt 8.56074 15.1644 20.8882
Au 6.02918 7.88006 18.8537
Pt 8.80701 10.8168 23.9391
Au 13.0659 19.7052 25.642
Pt 13.5792 21.8215 23.9311
Au 8.51754 15.6839 5.12102
Au 9.93845 20.8397 6.11791
Pt 5.88321 19.785 13.0596
Au 6.37363 18.9573 8.42127
Pt 8.64721 20.3338 8.51786
Au 4.95666 18.8616 10.7694
Pt 5.12435 15.1527 13.5008
Au 8.60251 19.1449 13.752
Pt 7.71908 19.3027 10.9915
Au 4.23825 18.9181 16.2433
Pt 11.6111 22.421 14.9414
Au 10.6169 18.7624 18.389
Pt 11.87 24.9433 14.4204
Au 8.14848 15.9455 23.4257
Pt 9.32706 22.7887 18.117
Au 6.96506 22.0741 19.507
Pt 11.613 22.6525 19.6889
Au 10.9735 20.8131 24.5078
Au 7.51046 18.4257 22.2117
Pt 10.1309 24.7236 19.8301
Au 6.79305 21.5771 10.0618
Au 12.2264 26.0406 10.1232
Pt 7.83548 21.4889 12.6714
Au 11.4131 18.6624 12.6798
Pt 10.3572 19.4968 10.429
Au 6.42249 20.7751 15.4024
Pt 9.54729 23.6346 13.283
Au 10.1141 26.8387 15.2067
Pt 9.53861 22.1291 10.6528
Au 12.0758 24.713 21.7438
Au 3.32361 14.1198 15.2661
Pt 9.3683 24.334 15.8628
Pt 13.6404 7.1934 10.5616
Pt 15.5851 11.2517 8.09394
Pt 16.1599 4.76411 14.7099
Pt 15.7595 8.46433 12.6074
Pt 12.4622 5.25106 12.1554
Pt 14.7594 4.98365 16.8868
Pt 9.46884 5.07638 17.4263
Pt 10.9594 8.64213 20.8384
Pt 16.478 14.0782 25.3552
Pt 11.218 10.6113 8.8141
Au 13.0144 5.92254 8.10616
Au 8.24502 5.35255 10.5109
Pt 13.6128 9.39777 8.18821
Au 17.4785 6.86496 6.80112
Pt 13.5893 13.6332 5.46443
Au 14.5715 4.67491 10.204
Pt 11.1218 6.34733 14.2816
Au 13.2098 8.11381 13.4955
Pt 18.5264 8.57352 11.3982
Au 16.0526 2.13511 14.2865
Pt 11.3164 9.15635 18.1327
Au 12.4598 9.92551 15.6004
Pt 14.9845 5.95294 12.5927
Au 16.2186 2.71047 16.937
Pt 7.53062 6.99366 16.8678
Au 11.1638 4.20318 19.6656
Pt 11.1376 10.8726 22.7901
Au 6.37505 6.46532 14.216
Pt 13.2883 5.67122 18.8898
Au 14.0789 13.068 26.3778
Pt 16.383 10.4112 22.3152
Pt 10.8262 14.0056 5.58793
Au 18.716 4.91074 10.958
Au 12.565 13.8909 3.05845
Pt 13.4059 11.7422 9.80335
Au 15.2962 9.46944 10.2313
Pt 10.6037 13.4009 8.31379
Au 10.9777 5.28583 9.87677
Pt 11.43 11.6583 17.8712
Au 11.8596 11.1523 13.1047
Pt 12.53 9.50869 11.0022
Au 10.4143 8.89583 13.7314
Pt 8.89291 11.2038 18.4906
Au 10.3855 12.9479 20.0066
Pt 12.1801 10.8845 20.3949
Au 9.69231 12.2095 26.0883
Pt 12.6354 15.0974 24.6259
Au 11.5446 14.3273 26.8289
Pt 12.0069 12.4398 24.7311
Au 20.2481 8.43711 23.2756
Pt 12.8544 17.7195 23.822
Au 11.3829 6.39073 23.7129
Pt 15.9209 11.5319 24.6971
Pt 9.99772 11.5108 6.4391
Au 10.5895 15.676 3.42268
Au 6.90048 16.2325 7.29656
Pt 12.6518 20.4867 6.4621
Au 12.6875 14.4737 9.94203
Pt 10.7211 17.1071 5.69271
Au 9.90752 14.1231 13.1168
Pt 10.1763 16.7759 14.1335
Au 10.9466 12.5447 15.3644
Pt 12.1606 14.8778 14.7558
Au 9.40785 14.8648 15.8746
Pt 9.53566 16.3005 18.3803
Au 11.3712 14.3032 17.6169
Pt 11.4012 16.8298 16.5046
Au 9.70928 17.6261 20.827
Pt 12.9255 19.9407 22.3589
Au 12.1033 13.3739 22.1795
Pt 11.3455 15.4225 20.2298
Au 15.2923 18.3474 26.2916
Pt 11.3617 22.2404 22.3698
Au 9.76475 6.15724 21.5162
Pt 15.1627 19.6817 23.8692
Pt 11.6047 23.5572 9.28438
Au 13.532 24.7771 7.91158
Au 11.6162 23.0495 6.63212
Pt 10.7949 18.7338 7.64843
Au 20.5212 24.2447 9.19644
Pt 13.8392 21.9156 8.61825
Au 9.25614 17.1878 11.6916
Pt 10.52 21.1469 12.8825
Au 13.1941 17.466 14.5445
Pt 15.7708 24.4246 13.6216
Au 10.9313 19.5044 15.362
Pt 11.2197 21.2123 17.4507
Au 13.1463 18.8181 17.0677
Pt 15.5653 21.9817 14.5917
Au 12.4943 17.8545 20.6927
Pt 14.6596 24.78 20.8122
Au 15.0513 18.1813 19.1518
Pt 11.6287 23.9286 17.1858
Au 8.87176 20.7302 22.6783
Pt 9.24216 22.409 20.7349
Au 16.7987 25.0209 22.7306
Pt 13.7557 22.3732 21.2368
Au 17.9256 25.368 8.98185
Au 7.40412 23.8711 11.5487
Pt 11.1791 21.1853 8.60477
Au 9.11838 22.9722 8.11703
Pt 11.5845 23.7581 11.8543
Au 13.0242 19.2999 9.16671
Pt 13.6574 22.9715 13.1314
Au 12.7179 21.2245 11.1422
Pt 13.6228 25.6835 12.3974
Au 9.52474 24.9033 10.3119
Pt 14.6272 26.5541 14.6275
Au 13.3075 20.3226 13.8664
Pt 12.8072 26.3025 16.5984
Au 10.4134 26.3938 17.8227
Pt 12.6448 25.3755 19.1455
Au 14.8327 27.2551 19.6942
Pt 15.133 25.2313 18.0982
Au 8.05574 25.0991 18.2006
Au 14.2824 24.256 23.4324
Pt 16.2664 22.9001 19.6715
Pt 12.6151 12.0897 7.22075
Pt 16.1585 9.16076 6.5305
Pt 14.3226 10.7851 5.69913
Pt 19.4113 6.91492 17.8587
Pt 17.4734 8.69365 8.79912
Pt 13.8404 3.00163 15.5906
Pt 17.3404 8.35576 16.8766
Pt 15.0421 6.51311 20.6937
Pt 17.4667 5.09193 17.4054
Pt 14.212 8.80375 21.7607
Pt 17.6429 6.579 19.9244
Pt 16.1676 12.9403 6.11023
Au 15.0229 12.3877 3.60459
Au 13.8373 7.81228 6.0117
Pt 15.2531 7.28797 8.33973
Au 19.6952 8.54489 6.94287
Pt 18.1234 10.8086 7.25208
Au 16.9189 5.06889 8.76397
Pt 17.759 8.65886 14.2616
Au 13.9989 3.24145 12.8987
Pt 21.1882 9.25114 11.4803
Au 14.5738 9.1507 17.1692
Pt 13.3899 8.35472 19.3811
Au 19.4357 4.71206 19.5335
Pt 18.4901 6.30985 15.392
Au 20.1408 4.9471 13.6098
Pt 10.8444 6.71856 18.9304
Au 24.6159 8.93998 18.345
Pt 12.4919 8.74455 23.5715
Au 14.2092 6.35291 23.3328
Pt 13.8083 11.1613 22.8875
Au 18.9396 6.18088 22.2997
Pt 18.6488 12.262 24.9356
Pt 12.853 16.0914 4.69126
Au 15.0398 15.2456 3.41916
Au 14.5662 13.802 8.1099
Pt 12.3177 15.3628 7.31508
Au 16.3964 15.4969 9.21051
Pt 15.0823 15.6246 6.18045
Au 15.6218 12.9469 10.5512
Pt 13.2631 13.534 12.3966
Au 14.4707 10.9925 12.3792
Pt 17.2357 10.8162 12.6439
Au 13.6904 12.4724 14.7829
Pt 14.6955 10.8822 19.9821
Au 17.6344 11.6175 20.2925
Pt 16.0357 13.148 13.1476
Au 15.3031 13.1248 21.2322
Pt 14.5425 13.6044 23.7148
Au 20.9676 13.6688 25.4997
Pt 17.3805 12.9691 22.8527
Au 12.7761 17.0242 26.51
Pt 16.4874 15.4073 22.5889
Au 17.4213 16.6573 26.2422
Pt 13.5534 15.605 22.1291
Pt 11.3639 17.0058 9.59744
Au 18.6726 23.1029 7.33383
Au 14.6834 20.5229 4.52686
Pt 15.0888 19.901 7.17524
Au 14.0621 16.7379 9.10924
Pt 13.2459 17.8411 6.77707
Au 15.0393 15.5652 11.6535
Pt 13.9461 14.3902 16.8193
Au 14.894 15.1317 14.4347
Pt 17.4526 17.277 11.0036
Au 13.9952 11.7783 17.4378
Pt 13.0887 16.3343 18.4857
Au 16.0231 13.6571 18.4545
Pt 16.1543 12.7288 15.8011
Au 13.2557 13.5356 19.512
Pt 16.1046 22.4832 22.3478
Au 17.3855 18.1386 20.7633
Pt 14.9188 17.8475 21.998
Au 14.917 15.5256 27.0563
Pt 10.8202 20.2062 20.7177
Au 10.8127 9.81579 25.3967
Pt 17.0652 17.78 23.6265
Pt 16.6291 24.4763 11.2186
Au 14.3199 22.7463 6.11137
Au 12.2739 18.8699 4.36498
Pt 19.8366 20.7734 12.9385
Au 15.6891 19.0691 9.85723
Pt 16.9897 21.1351 8.55011
Au 13.8326 18.218 11.647
Pt 15.5903 21.8547 10.727
Au 15.7825 17.5836 13.4764
Pt 20.2371 19.1924 10.766
Au 15.1734 16.7708 16.6906
Pt 13.6464 21.4843 16.4365
Au 17.4764 14.9619 16.1018
Pt 16.0059 22.911 16.9568
Au 17.3938 16.3669 18.5057
Pt 15.4338 20.3085 21.0281
Au 16.0728 22.0124 24.9678
Pt 20.3358 23.8272 17.058
Au 18.4084 22.8609 23.7758
Pt 18.3859 23.5488 21.0931
Au 17.5679 19.7256 25.5309
Pt 17.9385 20.8692 20.1425
Pt 17.9208 20.3006 11.02
Au 15.0833 26.1795 9.87129
Au 15.9899 23.651 8.333
Pt 13.9936 23.8394 10.5479
Au 12.3779 27.6416 14.0271
Pt 19.6713 20.9586 8.85977
Au 17.0617 27.7822 14.9875
Pt 13.9946 24.1036 15.7387
Au 15.4057 19.4258 15.586
Pt 15.8448 20.0878 12.6641
Au 20.885 24.9586 14.4328
Pt 18.0392 23.4434 15.1917
Au 19.2284 26.1936 16.2646
Pt 18.16 25.5985 13.6986
Au 13.1984 20.3406 19.3656
Pt 13.8647 22.977 18.5743
Au 15.8692 20.5128 18.1473
Pt 18.3017 21.702 17.4155
Au 14.9934 27.7963 16.9755
Pt 17.0399 25.5574 20.1175
Au 19.8871 25.3311 19.4856
Pt 17.9493 24.3196 18.0218
Pt 16.5701 6.85199 10.6109
Pt 20.1012 7.64424 13.4879
Pt 17.6794 6.30811 12.9475
Pt 15.6133 6.92862 18.1561
Pt 21.1918 6.62739 15.818
Pt 16.595 7.59366 22.5602
Pt 16.2862 8.85403 19.8712
Pt 18.9151 13.003 5.83763
Au 17.3666 13.9512 3.89266
Pt 19.8517 9.90594 9.29427
Au 21.7332 13.0108 5.8297
Pt 17.1647 16.6321 4.63093
Au 20.1575 10.7265 5.42004
Pt 19.569 11.7884 11.3678
Au 21.7557 8.05922 8.964
Pt 21.9521 11.4958 10.1307
Au 19.2373 6.75527 9.05368
Pt 15.4797 7.26381 15.1837
Au 18.3532 3.43137 15.0596
Pt 20.3919 7.20834 20.3277
Au 22.7045 9.28847 22.8361
Pt 22.1356 11.7626 21.8879
Au 21.1681 11.1162 24.4341
Pt 18.4688 8.84094 21.3624
Au 13.7119 4.18248 21.1715
Pt 18.6366 15.0425 24.4909
Pt 20.0346 13.4596 22.9048
Pt 14.8348 17.8694 4.69313
Au 19.6481 15.4642 4.643
Au 22.0886 10.3656 7.41277
Pt 16.2509 17.5892 7.35777
Au 17.2536 10.9527 4.67707
Pt 17.6666 15.1432 6.71125
Au 17.8641 13.223 8.55674
Pt 17.504 11.007 10.0449
Au 18.5735 12.9819 14.015
Pt 22.8584 14.0292 11.1206
Au 15.4995 10.2171 14.8489
Pt 20.2168 12.4532 20.2907
Au 16.5648 10.8614 17.8985
Pt 19.7384 10.3084 13.4779
Au 18.8793 9.41443 18.8072
Pt 19.838 17.0815 19.8091
Au 18.5487 12.87 17.7902
Pt 22.6303 12.8568 17.337
Au 16.5577 4.87019 22.0346
Pt 18.9805 16.3049 22.2507
Au 20.2072 16.0842 26.4173
Pt 21.1026 15.9733 23.8234
Pt 16.753 21.677 6.08156
Au 21.3479 22.313 7.3666
Au 19.4451 18.4633 4.33336
Pt 18.2036 18.7334 8.79742
Au 23.1368 15.3946 6.90618
Pt 17.0081 19.1764 5.35203
Au 18.0205 14.1491 11.2315
Pt 20.4827 14.1916 12.6159
Au 19.0087 16.0844 9.08113
Pt 22.5418 16.0178 12.7454
Au 18.2198 10.9438 15.7597
Pt 20.2043 14.1073 15.9442
Au 19.711 16.6256 17.005
Pt 22.4628 13.9706 14.455
Au 15.2781 15.6883 20.1053
Pt 17.5568 20.3447 22.8384
Au 20.516 14.552 18.6051
Pt 24.5771 13.1315 21.875
Au 17.9558 9.56787 24.3919
Pt 19.4117 17.8446 24.6462
Au 13.4701 10.4564 25.6643
Pt 19.6532 18.8349 22.2124
Pt 22.228 20.2567 9.19864
Au 24.3039 22.7622 11.8619
Au 16.2087 26.9276 12.3639
Pt 20.7733 18.142 8.36745
Au 23.5048 17.9801 8.07777
Pt 22.7999 20.413 11.9533
Au 17.6675 15.6273 13.4121
Pt 17.8279 20.6017 14.8966
Au 20.1876 16.3093 14.3361
Pt 19.9905 19.0828 15.4562
Au 17.5842 17.7413 15.6592
Pt 17.3613 22.3214 12.7281
Au 22.4197 15.5327 16.7024
Pt 23.5125 20.2329 17.1868
Au 18.1789 14.4323 20.4476
Pt 20.4284 19.6924 19.847
Au 24.4027 21.1709 21.0385
Pt 21.5263 18.3583 17.7838
Au 22.0085 18.6091 24.1645
Pt 19.8363 21.5057 21.8786
Au 19.9841 20.5494 24.3843
Pt 20.0125 22.5297 19.354
Au 26.5336 17.6035 13.9954
Pt 20.9302 22.0484 10.8491
Au 25.6291 20.2218 12.5845
Au 18.4511 18.4535 13.1179
Pt 18.3676 22.8946 10.1689
Au 23.6235 24.5234 13.9912
Pt 21.9787 22.5615 13.3399
Au 21.9555 24.6019 11.5758
Pt 20.1612 22.0683 15.1513
Au 18.4201 19.0223 18.0245
Pt 19.5537 23.5213 12.6359
Au 17.3769 27.143 18.0409
Pt 16.5532 25.4336 15.9782
Au 22.3683 24.0966 18.9216
Pt 20.7996 20.8223 17.3306
Au 22.6167 25.2762 16.5021
Pt 22.2253 9.21545 14.1333
Pt 20.9187 9.76763 20.6637
Pt 21.6407 8.49352 18.246
Pt 20.4286 14.8825 7.20383
Au 23.4219 7.70652 11.161
Pt 22.8096 10.0555 16.5815
Au 20.9229 6.4845 11.2244
Pt 20.3098 12.1825 7.973
Au 20.0936 8.99927 16.0393
Pt 22.9417 10.8424 19.3053
Au 23.6525 7.53277 16.0969
Pt 23.8217 11.4836 14.6557
Au 21.9255 5.86751 18.4436
Pt 19.313 11.0044 22.5009
Pt 21.1137 15.0428 21.2312
Pt 18.8958 17.4475 6.62303
Au 22.9992 13.1676 8.37784
Pt 24.6471 13.3856 13.0992
Au 23.8831 9.81618 9.40795
Pt 21.8429 15.8769 9.27064
Au 24.7207 8.31327 13.5056
Pt 21.8864 11.9568 12.7734
Au 23.0772 8.0334 20.4432
Pt 23.6019 10.2637 12.0374
Au 25.6048 9.54796 15.6454
Pt 20.6694 11.1462 17.9857
Au 24.6499 10.3923 21.312
Pt 24.9293 11.4879 17.218
Au 15.1978 8.8449 24.4369
Pt 22.6396 13.9502 23.3053
Au 26.3287 14.6129 20.3586
Pt 22.754 13.5178 19.9294
Au 25.5338 17.1897 19.7263
Pt 15.0147 16.3282 24.5341
Pt 23.918 15.6097 21.3325
Pt 19.0286 20.2321 6.53534
Au 19.2512 25.7541 11.2557
Au 21.4875 17.1759 5.8254
Pt 24.6928 13.8439 15.9543
Au 22.6119 6.50222 13.5267
Pt 22.5998 17.8965 10.6628
Au 26.8072 13.4602 17.7416
Pt 20.4234 13.8465 9.92339
Au 26.7038 14.7763 14.2504
Pt 24.3832 16.1607 14.7694
Au 21.0175 11.7007 15.3427
Pt 22.5173 16.3896 19.2928
Au 26.6474 12.1812 15.1982
Pt 24.5177 14.8988 18.4134
Au 23.8664 11.5537 23.8813
Pt 25.0865 12.3966 19.5194
Au 26.729 18.6174 16.7149
Pt 23.2561 18.9312 19.717
Au 24.4179 18.462 22.0842
Pt 21.9056 17.5053 21.676
Au 23.7117 16.4385 23.8205
Pt 22.0947 20.1679 21.9173
Au 24.6795 20.6846 10.0091
Pt 20.1378 16.5614 11.4449
Au 21.6873 19.7886 6.47961
Au 25.251 18.0969 10.4856
Pt 22.412 17.7771 15.3139
Au 24.7428 12.2543 10.5816
Pt 21.2862 18.4656 13.046
Au 25.6571 19.8807 18.9056
Pt 24.2425 17.5894 17.3711
Au 25.2638 15.7995 12.0549
Pt 23.994 18.1738 12.9107
Au 26.4185 15.9714 16.7181
Pt 22.6039 22.6037 16.3075
Au 24.6561 22.5078 18.5245
Pt 22.3857 21.4022 19.3093
Au 21.9888 22.9655 21.4261
Au 23.0224 22.9114 9.47563
Pt 24.3618 21.8083 14.3864
Au 24.45 15.5685 9.43227
Au 26.0164 21.2634 16.4647
Pt 22.2451 20.3316 14.7334
Au 25.928 10.9193 12.9595
Pt 24.7223 19.2369 15.1218
Au 24.9729 23.8006 16.1911
