561
Atoms. Timestep: 20143
Pt 7.60006 7.21953 15.1647
Au 5.73082 7.1411 13.1758
Pt 7.53883 10.9916 11.1508
Au 5.43556 9.01526 15.1855
Pt 5.56668 11.0068 13.15
Pt 5.51605 11.0666 17.0802
Au 3.86129 13.1811 9.26573
Pt 5.69852 15.1228 9.12884
Au 3.60095 13.0097 13.0178
Pt 3.96545 15.0313 11.1801
Au 3.80402 15.0938 19.2999
Pt 5.49839 13.0308 15.1104
Au 7.62288 5.2569 17.0234
Pt 5.42752 15.0137 17.1248
Pt 7.39931 11.0402 19.1317
Au 5.70431 13.1679 7.2448
Au 3.58685 17.0148 13.0694
Pt 7.08253 17.6539 6.8418
Au 3.47553 14.977 15.0399
Pt 5.58043 17.0263 11.1583
Au 3.4543 16.995 17.101
Pt 5.42774 16.948 15.1289
Au 6.73484 16.3685 23.5641
Pt 5.47392 17.1569 19.0852
Au 4.79693 17.4564 21.868
Pt 5.77457 15.0059 21.3008
Au 4.96994 17.7039 8.56982
Au 4.97807 21.4746 12.5711
Pt 5.11608 19.5344 10.6163
Au 3.04117 17.7126 19.7975
Pt 5.59485 18.912 17.022
Au 4.95161 19.7387 20.3574
Pt 5.41362 21.288 18.0887
Au 3.66639 19.0771 15.1253
Au 3.30429 19.6617 17.9844
Pt 5.67049 20.948 15.1614
Pt 9.56347 7.25045 13.2122
Pt 7.71227 7.22871 11.3214
Pt 7.43546 9.08491 17.1074
Pt 9.62548 5.35731 15.1605
Pt 9.48207 7.2424 17.1671
Pt 5.62306 12.9344 11.1905
Au 7.49368 8.98404 9.13792
Pt 9.67621 9.15949 7.34428
Au 5.58719 9.07222 11.2237
Pt 7.52836 9.15199 13.2076
Au 7.69136 5.2471 13.2885
Pt 9.5017 9.11841 11.1603
Au 9.70802 3.52048 17.1156
Pt 7.40576 11.0478 15.176
Au 9.44019 9.18538 15.1945
Pt 9.44969 11.0612 13.1635
Au 7.35812 7.11502 19.0624
Pt 9.53309 5.41531 19.0759
Au 11.5028 3.52033 19.1635
Pt 9.31015 9.0573 19.2163
Pt 11.3127 9.14148 21.1416
Pt 9.47493 13.0388 7.19876
Au 11.6161 9.12779 5.35256
Au 5.57241 11.0453 9.17495
Pt 7.50787 13.0293 9.1956
Au 9.43853 11.0621 9.15889
Pt 11.5199 14.9655 7.19836
Au 3.65347 11.1253 15.084
Pt 5.55517 14.9747 13.2007
Au 7.46345 12.9564 13.1734
Pt 9.4117 13.005 11.1698
Au 3.5837 13.0651 17.0858
Pt 7.27086 13.0312 17.2181
Au 9.32307 11.1174 17.2447
Pt 9.31594 12.9995 15.2263
Au 5.23024 12.7484 19.2901
Pt 7.26533 12.8375 21.0815
Au 9.33727 11.0498 21.1237
Pt 9.24109 13.0931 19.256
Au 5.51127 9.18538 18.9797
Pt 7.5333 11.0742 23.0073
Au 9.33091 11.0507 25.0201
Pt 11.3306 11.0936 23.1388
Pt 7.64258 15.0684 7.22443
Au 7.53447 11.0656 7.14519
Au 9.48331 14.965 9.16777
Pt 7.57478 16.9926 9.27285
Au 11.5036 16.9218 9.18803
Pt 9.5826 16.9855 7.26037
Au 7.44117 14.9814 11.1795
Pt 7.41857 16.9341 13.1684
Au 9.42819 14.9844 13.1963
Pt 9.45735 16.9242 11.1801
Au 7.40796 15.0017 15.2027
Pt 7.3665 16.9654 17.1612
Au 9.32152 14.9754 17.2314
Pt 9.39408 16.9112 15.2036
Au 7.20223 14.9622 19.1555
Pt 7.3034 17.1863 21.0231
Au 8.9053 15.0256 21.4384
Pt 9.23472 16.9262 19.2054
Au 6.79639 13.6909 23.5756
Pt 9.31754 12.983 23.1164
Au 8.98034 15.0532 24.8413
Pt 9.23455 17.1459 23.1101
Au 8.88091 17.6266 4.79895
Au 8.75344 19.7944 6.52866
Pt 6.96576 19.6048 8.65027
Au 9.51414 18.983 9.18046
Pt 8.92654 21.5646 8.67761
Au 7.57446 18.9914 11.2215
Pt 5.57803 18.9263 13.1739
Au 9.50664 18.8568 13.1899
Pt 9.46663 21.0086 11.2128
Au 7.47887 18.8945 15.1012
Pt 7.646 20.8961 16.9909
Au 9.42586 18.8566 17.1905
Pt 9.53929 22.923 17.0804
Au 7.30209 19.1973 19.118
Pt 7.49971 21.1515 20.9998
Au 9.30191 19.0123 21.0751
Pt 9.46281 20.944 19.0551
Au 7.15733 19.1404 22.9119
Au 9.28608 19.1081 24.9412
Pt 9.38302 20.9396 22.9272
Au 6.79172 21.6968 10.4726
Au 6.94132 23.4626 12.6452
Pt 7.56335 20.9121 13.161
Au 11.4784 20.9094 13.1944
Pt 9.54486 22.9554 13.1771
Au 9.52849 20.9348 15.1172
Pt 7.53997 22.8159 18.8116
Au 9.40623 24.8425 18.9953
Pt 7.6235 22.8446 15.1795
Au 7.33459 24.122 21.0965
Au 5.34049 22.4845 20.3938
Pt 9.58927 22.8627 20.873
Pt 11.5131 7.21807 11.2498
Pt 15.5001 9.19717 9.29938
Pt 11.5454 5.3662 13.235
Pt 13.5731 5.40946 11.2933
Pt 11.498 5.41129 17.1787
Pt 13.4528 5.35201 15.2018
Pt 11.4352 5.44719 21.0476
Pt 13.4379 5.37261 19.2544
Pt 11.4267 7.27044 22.9816
Pt 11.5505 11.0819 7.32217
Au 11.5504 7.08909 7.29038
Au 9.52604 7.04684 9.22668
Pt 11.4924 9.09799 9.25867
Au 11.6716 5.21029 9.39889
Pt 13.5029 11.0608 5.47017
Au 9.62771 5.19553 11.341
Pt 11.4329 9.17817 13.1831
Au 13.4805 7.25698 13.2485
Pt 13.4493 9.18232 11.2467
Au 11.4915 7.26913 15.202
Pt 11.362 9.18932 17.2371
Au 13.4478 7.25579 17.2317
Pt 13.4156 9.20523 15.2476
Au 13.4488 3.59376 17.2058
Pt 11.4181 7.27241 19.1709
Au 9.26021 7.09081 21.2302
Pt 13.3423 9.21773 19.2452
Au 7.25755 9.11298 21.1496
Pt 9.42453 9.15808 23.023
Au 15.1697 9.13488 25.2382
Pt 13.2862 9.16323 23.2114
Pt 11.5392 12.9913 5.41301
Au 15.58 9.16479 5.30984
Au 9.65907 11.0767 5.35873
Pt 11.4301 13.0304 9.15481
Au 13.4776 11.1342 9.24726
Pt 13.4958 13.074 7.19807
Au 11.4319 11.117 11.1934
Pt 11.3802 13.031 13.2144
Au 13.4277 11.137 13.2449
Pt 13.4279 13.0487 11.2195
Au 11.3982 11.1522 15.2276
Pt 11.3101 13.0732 17.2545
Au 13.3702 11.163 17.2603
Pt 13.3796 13.0614 15.2564
Au 11.3195 11.1495 19.2135
Pt 11.2152 13.1085 21.2656
Au 13.2687 11.1778 21.2656
Pt 13.2903 13.113 19.3061
Au 11.2794 9.08872 25.0154
Pt 11.1535 13.0613 25.0121
Au 13.123 11.1588 25.3195
Pt 13.2121 13.1232 23.3226
Pt 11.488 16.9795 5.37461
Au 13.417 14.9504 5.04936
Au 9.574 14.9614 5.23747
Pt 11.464 18.9554 7.28208
Au 13.483 14.9665 9.18023
Pt 13.4866 16.8791 7.13255
Au 11.4449 14.9516 11.2107
Pt 11.4552 16.8747 13.2366
Au 13.4121 14.96 13.2468
Pt 13.4553 16.8807 11.2309
Au 11.3653 14.9528 15.2349
Pt 11.3607 16.8723 17.2361
Au 13.3292 14.9739 17.2935
Pt 13.3961 16.8845 15.2679
Au 11.2209 15.0132 19.3164
Pt 11.2062 16.9193 21.2428
Au 13.2659 15.0305 21.3253
Pt 13.3201 16.8876 19.2682
Au 11.1921 15.0659 23.2496
Pt 11.1574 17.0732 25.006
Au 13.076 15.0144 25.399
Pt 13.2205 16.938 23.3267
Pt 10.8949 21.5091 6.79615
Au 12.8007 21.511 4.85811
Au 10.8615 19.5813 4.719
Pt 11.52 20.8987 9.30448
Au 13.4783 18.846 9.21715
Pt 13.4855 20.8945 7.3748
Au 11.4655 18.8729 11.2315
Pt 11.4869 22.8856 15.179
Au 13.4641 18.8516 13.2673
Pt 15.4542 22.8689 11.2684
Au 11.4589 18.8553 15.2324
Pt 11.4375 20.9299 17.1572
Au 13.3908 18.8584 17.2258
Pt 13.4582 20.9333 15.2171
Au 11.355 18.8454 19.1845
Pt 11.3993 20.9002 21.0939
Au 13.3258 18.8284 21.2249
Pt 11.4639 22.8809 19.0768
Au 11.2827 18.9468 23.0785
Pt 11.3045 20.9908 24.7455
Au 15.1204 20.9534 25.1748
Pt 13.3314 20.9392 23.0288
Au 12.8311 23.5011 6.74275
Au 8.82764 23.6371 10.5613
Pt 11.5079 22.8628 11.2551
Au 10.8859 25.4154 10.7166
Pt 10.8975 23.427 8.72415
Au 13.5077 20.8653 11.2693
Pt 11.548 24.7346 13.2397
Au 13.488 22.8779 13.2501
Pt 13.5119 24.7548 11.3078
Au 9.5415 24.8569 15.1557
Pt 11.5048 24.7539 17.1372
Au 13.429 22.8695 17.1505
Pt 13.4336 24.8011 15.2083
Au 11.3924 24.94 20.9919
Pt 11.3782 22.9112 22.9023
Au 13.3696 24.8035 22.9378
Pt 13.4102 24.7488 19.1387
Au 8.73402 23.4216 23.2844
Au 13.2114 22.8932 24.9048
Pt 13.3612 22.8603 21.0754
Pt 13.5301 9.13948 7.35815
Pt 15.561 5.49687 9.43635
Pt 15.5846 7.30174 7.45336
Pt 15.4886 5.4014 13.2714
Pt 17.4709 5.45103 11.3879
Pt 15.4581 5.35899 17.2912
Pt 17.4696 5.40588 15.3216
Pt 15.3299 5.42141 21.1425
Pt 17.3629 5.44322 19.3007
Pt 15.2343 7.26532 23.1354
Pt 19.0816 7.33321 23.2345
Pt 17.5309 11.1406 5.49858
Au 13.6617 7.21986 5.53681
Au 13.7143 5.32022 7.51983
Pt 13.5179 7.27908 9.33572
Au 19.354 5.34531 9.4769
Pt 17.4922 9.1779 7.35841
Au 15.4957 7.30908 11.3135
Pt 15.458 9.21091 13.2806
Au 17.4528 7.28812 13.3202
Pt 17.4949 9.20989 11.2946
Au 15.4498 7.23718 15.284
Pt 15.3936 9.22923 17.2793
Au 17.4158 7.27362 17.306
Pt 17.4387 9.23925 15.3197
Au 15.3711 7.29468 19.2368
Pt 13.3541 7.32198 21.1376
Au 17.2105 5.31026 23.054
Pt 17.2435 7.34608 21.2458
Au 13.3496 5.34542 22.9786
Pt 15.2669 9.23607 21.2878
Au 17.13 7.20163 25.0631
Pt 17.1897 9.20675 23.2428
Pt 15.4644 12.9475 5.34295
Au 17.4948 14.8949 5.06143
Au 15.5015 11.0868 7.26496
Pt 15.4604 13.0797 9.15817
Au 17.4793 11.1578 9.28856
Pt 17.4639 13.0956 7.23457
Au 15.4635 11.1604 11.2721
Pt 15.4238 13.0731 13.2737
Au 17.446 11.1782 13.305
Pt 17.4468 13.0987 11.2615
Au 15.4143 11.1568 15.2875
Pt 15.3576 13.105 17.3028
Au 17.3951 11.2196 17.3224
Pt 17.4033 13.1123 15.3222
Au 15.3144 11.2252 19.307
Pt 15.254 13.1372 21.4166
Au 17.2662 11.1996 21.3556
Pt 17.3537 13.1112 19.3692
Au 15.1669 11.1449 23.3456
Pt 15.1596 13.0463 25.2096
Au 17.1698 14.9902 25.5264
Pt 17.1841 13.1267 23.3977
Pt 13.4456 18.9521 5.45249
Au 15.4524 17.0383 5.05652
Au 15.4654 15.0203 7.02789
Pt 15.4398 16.9005 9.14574
Au 17.4098 15.0258 9.21736
Pt 17.4238 16.8959 7.11802
Au 15.4287 14.9786 11.2345
Pt 15.4064 16.8879 13.2757
Au 17.4065 15.0024 13.2961
Pt 17.4088 16.8943 11.2638
Au 15.3811 14.9858 15.2949
Pt 15.3642 16.8885 17.2986
Au 17.3682 15.0156 17.3576
Pt 17.386 16.8896 15.323
Au 15.3327 15.0072 19.3435
Pt 15.2866 16.9158 21.3905
Au 17.2618 15.056 21.4063
Pt 17.3625 16.9415 19.385
Au 15.2219 15.09 23.4993
Pt 13.1229 19.0568 24.9788
Au 15.0838 17.0628 25.4639
Pt 17.2552 16.9846 23.4792
Pt 15.4535 22.82 7.45177
Au 15.4782 20.9843 5.39689
Au 15.4422 18.878 7.21736
Pt 19.328 22.8027 11.3217
Au 17.4511 18.826 9.20687
Pt 17.4438 20.8943 7.36607
Au 15.4683 18.8212 11.2675
Pt 15.4525 20.9227 13.2884
Au 17.3901 18.8389 13.3198
Pt 17.3853 20.8751 11.3257
Au 15.3887 18.8574 15.2846
Pt 15.3646 20.9133 17.2062
Au 17.3988 18.8371 17.3031
Pt 15.4238 22.9432 15.2124
Au 15.3606 18.8159 19.2798
Pt 15.3091 20.8681 21.2057
Au 17.3015 18.8395 21.4256
Pt 19.2022 22.8277 19.1648
Au 15.2187 18.8787 23.3317
Pt 15.2943 22.8308 23.0861
Au 17.1567 18.9662 25.2889
Pt 17.1131 20.8282 23.2503
Pt 17.4114 22.8276 9.36915
Au 18.096 25.3587 8.66679
Au 15.4886 20.8562 9.28882
Pt 13.4891 22.8385 9.34807
Au 15.4298 24.8906 9.2605
Pt 20.0008 23.4428 8.76092
Au 12.7548 25.3742 8.75472
Pt 15.4159 24.8067 13.2215
Au 17.3788 20.8714 15.3261
Pt 17.3354 22.8765 13.282
Au 15.4134 26.647 15.2454
Pt 15.3643 24.7848 17.2019
Au 17.3807 26.6582 17.2517
Pt 17.3607 24.7656 11.2578
Au 13.3893 20.8592 19.1733
Pt 15.3393 22.8486 19.1821
Au 17.2983 20.8447 19.2189
Pt 17.282 22.8794 17.2233
Au 15.3656 26.5811 19.1747
Pt 15.3688 24.6954 21.136
Au 18.0705 25.1528 21.8914
Pt 17.2433 22.7811 21.175
Pt 17.5017 7.29719 9.38175
Pt 19.4296 5.44916 13.3744
Pt 19.4578 7.30327 11.3618
Pt 19.3713 5.43518 17.3654
Pt 21.3125 5.54661 15.3801
Pt 19.1797 5.57171 21.2011
Pt 19.3478 7.35176 19.337
Pt 19.4519 11.1428 7.40638
Au 19.4003 7.21613 7.39551
Pt 19.4689 9.17877 9.35162
Au 21.4622 7.18436 9.33427
Pt 21.3444 9.25941 7.47719
Au 21.3334 5.31693 11.483
Pt 19.4428 9.24475 13.3112
Au 23.2608 5.43753 13.5288
Pt 21.4294 9.1885 11.3421
Au 19.3668 7.31072 15.3126
Pt 19.4082 9.2573 17.374
Au 21.382 5.55905 19.3723
Pt 21.1966 7.35197 17.2793
Au 17.353 9.26528 19.3159
Pt 19.3468 9.1557 21.3221
Au 21.2968 7.09271 21.74
Pt 21.6651 8.76378 19.4931
Au 19.0696 9.17006 25.3274
Pt 17.1497 11.1104 25.1358
Pt 21.0678 9.25037 23.382
Pt 19.5184 13.0228 5.4584
Au 21.438 11.1357 5.4444
Au 19.4363 9.2238 5.46717
Pt 19.4434 13.1234 9.25245
Au 21.4721 11.1679 9.35923
Pt 21.4176 13.0499 7.40563
Au 19.4719 11.195 11.3139
Pt 19.4269 13.1533 13.3116
Au 21.4395 11.3046 13.3447
Pt 21.4844 13.1679 11.276
Au 19.4167 11.2557 15.3451
Pt 19.396 13.1647 17.3941
Au 21.3673 11.199 17.4205
Pt 21.5004 13.1882 15.4106
Au 19.4159 11.15 19.3894
Pt 19.2632 13.1102 21.452
Au 21.2894 11.1083 21.3974
Pt 21.3705 13.1266 19.454
Au 19.1728 11.1186 23.3671
Pt 19.1317 13.0573 25.248
Au 21.0752 11.1678 25.3382
Pt 21.1626 13.0043 23.3778
Pt 17.3956 18.9753 5.51298
Au 19.4484 16.9617 5.1906
Au 19.3858 15.0486 7.21209
Pt 19.4061 16.9524 9.19062
Au 21.4205 15.0622 9.2594
Pt 21.3899 17.0334 7.27163
Au 19.4269 15.0372 11.2778
Pt 19.4108 16.8788 13.3397
Au 21.4864 15.0046 13.36
Pt 21.4353 16.9014 11.3215
Au 19.4288 15.017 15.3589
Pt 19.3894 16.8829 17.3813
Au 21.4588 15.0276 17.4257
Pt 21.4965 16.8727 15.3947
Au 19.3336 15.0521 19.4344
Pt 19.2919 17.0201 21.5514
Au 21.2145 15.0238 21.4809
Pt 21.3435 16.9515 19.4627
Au 19.1438 15.0379 23.4545
Pt 21.2146 16.9581 23.4754
Au 19.2369 16.9557 25.4087
Pt 21.1745 18.9258 21.4717
Pt 20.0418 21.5582 6.91104
Au 22.5312 24.1984 8.36043
Au 19.4472 18.9463 7.12246
Pt 19.3361 20.8455 9.3652
Au 21.3197 18.9035 9.34174
Pt 21.9345 21.5596 8.91424
Au 19.3574 18.8277 11.3258
Pt 19.2533 22.8746 15.2515
Au 21.3738 18.7812 13.3385
Pt 21.3786 20.8899 15.2552
Au 19.4233 18.8234 15.3521
Pt 17.4444 24.8117 15.2522
Au 21.3482 18.8279 17.4159
Pt 23.8226 22.3521 15.3342
Au 19.3593 18.9003 19.399
Pt 19.0703 20.8729 21.3525
Au 21.3271 21.1102 19.7684
Pt 23.0119 20.9304 17.4026
Au 19.4279 19.1785 23.6448
Pt 20.1759 23.429 21.4258
Au 18.7165 22.8627 23.5215
Pt 21.745 23.7113 19.2142
Au 24.3918 24.1116 10.3473
Pt 21.8523 23.4732 10.897
Au 24.5295 22.2696 8.30697
Au 19.3598 20.8857 13.3274
Pt 19.2822 24.7148 13.072
Au 21.943 25.5363 12.6971
Pt 21.3229 22.9573 13.5615
Au 17.4102 26.6233 13.2952
Pt 19.26 24.7133 17.3389
Au 19.5436 20.9657 17.3244
Pt 20.4533 25.342 15.1633
Au 21.7864 25.7718 17.49
Pt 17.3069 24.7321 19.2523
Au 23.9515 23.9515 17.5658
Pt 21.438 23.1148 16.7089
Au 19.8672 25.6311 19.7944
Pt 21.3889 7.34435 13.3491
Pt 23.4837 6.76161 18.0602
Pt 23.3291 7.34984 15.4245
Pt 23.3161 9.25928 9.49971
Au 23.43 7.1964 11.3728
Pt 23.307 9.28598 13.3762
Au 25.2394 7.38304 13.493
Pt 25.1152 9.30701 11.537
Au 21.3859 9.28189 15.3284
Pt 23.303 9.31166 17.2823
Au 25.6722 7.82648 17.1897
Pt 25.1974 9.40731 15.2431
Au 23.6905 6.8228 20.6119
Pt 23.1344 9.24093 21.5986
Pt 24.7117 8.96813 19.4273
Pt 21.4168 14.9974 5.61187
Au 23.4801 11.0564 7.38703
Pt 23.4486 13.1123 9.24838
Au 25.3211 11.1312 9.48368
Pt 23.3725 15.1357 7.44483
Au 23.4181 11.2678 11.4177
Pt 23.5966 13.2279 13.3949
Au 25.5868 11.297 13.3292
Pt 25.3023 13.1507 11.293
Au 23.4504 11.3039 15.3619
Pt 23.445 13.0913 17.4657
Au 25.4635 11.0501 17.5669
Pt 25.4062 13.0727 15.5385
Au 23.2673 11.134 19.4216
Pt 23.2713 13.058 21.457
Au 25.1187 11.0548 21.3714
Pt 25.1525 13.0981 19.5342
Au 23.194 11.202 23.4843
Pt 21.1089 14.9293 25.1165
Pt 23.0597 14.8338 23.3405
Pt 22.0164 19.6798 6.88899
Au 18.0719 23.4249 6.73686
Au 23.3494 13.1636 5.63027
Pt 23.349 17.0162 9.32387
Au 25.4087 15.0675 9.27686
Pt 23.9099 19.6805 8.75659
Au 23.4893 15.0497 11.3016
Pt 23.4883 16.8844 13.3776
Au 25.6809 15.0945 13.2893
Pt 25.308 17.0114 11.2703
Au 23.6607 15.065 15.4209
Pt 23.4471 16.9375 17.4389
Au 26.992 15.1719 15.6834
Pt 25.3651 17.2202 15.3713
Au 23.3311 15.0559 19.5524
Pt 23.0894 17.0136 21.5268
Au 25.1566 15.1652 21.6085
Pt 25.2679 15.0179 17.6613
Au 24.0453 17.0781 24.0385
Pt 21.1106 21.3031 22.7833
Au 22.5175 19.2555 23.8577
Pt 23.4225 20.4348 21.6319
Au 22.5679 22.2659 6.43552
Pt 21.3096 20.884 11.4297
Au 23.9409 17.7484 6.73664
Au 23.3522 18.8851 11.3163
Pt 23.2762 20.7746 13.3291
Au 25.8412 17.7797 8.72247
Pt 23.8803 21.5373 10.817
Au 23.299 18.9142 15.3732
Pt 25.0482 19.0445 17.4683
Au 26.8921 17.1406 17.594
Pt 25.2508 18.8712 13.2
Au 23.2249 18.9812 19.4807
Pt 23.8853 22.0133 19.5351
Au 25.2019 18.4556 22.0008
Pt 25.1242 17.0864 19.6043
Au 22.7907 23.0724 21.6843
Au 20.0579 25.5125 10.5758
Pt 23.776 23.4158 12.8444
Au 25.9415 19.7394 10.6793
Au 25.7957 21.613 12.819
Pt 22.9093 24.6925 15.0962
Au 25.7397 20.0378 19.8537
Pt 25.4776 20.3894 15.2493
Au 25.6465 21.7491 17.5267
