561
Atoms. Timestep: 20782
Pt 13.5456 12.1212 18.0435
Au 15.0592 18.3193 5.16834
Pt 13.9554 10.0662 16.0287
Au 25.546 15.262 12.3389
Pt 7.60074 22.9323 16.5395
Pt 6.99248 12.4959 11.0793
Au 18.5389 3.60324 10.5982
Pt 21.8469 21.9473 14.9685
Au 6.75347 25.3558 12.4082
Pt 21.4811 17.0298 19.8916
Au 16.0886 13.0713 26.8499
Pt 6.06169 20.6083 16.4702
Au 21.0236 24.2689 16.4602
Pt 13.8498 14.7083 17.6477
Pt 6.39593 12.0446 13.8014
Au 18.7589 4.17581 16.4114
Au 18.9975 25.0883 11.498
Pt 18.2192 7.13425 20.7334
Au 6.56522 17.1636 12.1294
Pt 16.0931 18.9925 12.5919
Au 26.7918 20.5745 12.6657
Pt 15.403 16.404 13.1845
Au 20.1989 25.3597 13.9955
Pt 18.8393 12.8337 13.852
Au 9.72721 15.801 24.8665
Pt 15.1246 12.7436 22.4318
Au 9.24586 4.17305 16.8207
Au 18.5778 15.6974 4.56029
Pt 9.46977 25.7924 12.2808
Au 10.5122 28.0568 13.1847
Pt 23.6077 13.3776 16.6117
Au 11.2366 9.59603 6.79314
Pt 13.1527 20.5587 20.7389
Au 16.6525 9.92931 26.9205
Au 23.6215 8.60783 21.199
Pt 7.70047 10.2058 12.5029
Pt 20.0449 16.7661 7.34442
Pt 15.0235 24.8293 9.30837
Pt 16.7762 6.35796 15.7697
Pt 14.5053 7.67439 15.0782
Pt 10.1553 22.8245 15.3871
Pt 6.72963 22.8904 14.0393
Au 15.9687 19.4283 23.5597
Pt 13.312 10.9734 8.35498
Au 6.62767 17.3373 8.42616
Pt 19.4843 11.0144 15.9112
Au 16.253 4.05012 17.435
Pt 16.4606 16.9135 22.5805
Au 18.486 16.148 24.0369
Pt 12.732 19.0938 16.5842
Au 26.2225 13.5263 10.3449
Pt 16.0532 20.0132 9.93417
Au 24.4811 17.5929 8.38096
Pt 18.4885 20.8897 9.23261
Au 10.9267 20.1523 8.63459
Pt 22.4064 20.7772 17.2704
Pt 22.0981 12.6258 21.743
Pt 17.3459 23.8138 13.3135
Au 14.1049 4.1631 19.241
Au 6.91259 8.77028 21.0518
Pt 18.5625 20.669 20.9936
Au 11.2174 3.64192 14.8756
Pt 11.9879 16.4241 17.0297
Au 15.052 15.5452 26.4183
Pt 10.9169 25.6295 14.9478
Au 7.76895 11.1082 22.6638
Pt 15.0752 13.7886 19.9016
Au 16.874 3.79283 14.4606
Pt 21.2454 17.4285 14.2875
Au 6.48774 14.5587 12.8303
Pt 18.605 18.333 13.8587
Au 15.2694 4.0879 11.027
Pt 15.7888 6.23365 19.7249
Au 7.41804 23.6182 7.43613
Pt 13.9823 11.1875 20.6244
Au 25.8455 17.5106 21.1411
Pt 19.4764 18.5328 18.7534
Au 20.8525 13.5655 26.8393
Pt 20.4516 14.1802 10.7842
Pt 12.4095 26.0366 12.8165
Au 6.4586 7.95896 11.7103
Au 10.8888 6.34751 10.2146
Pt 10.6057 20.2847 19.5221
Au 14.1756 3.62898 15.4711
Pt 13.9036 15.6308 9.14258
Au 18.8886 6.35041 23.403
Pt 13.5425 16.1578 19.7838
Au 7.51556 26.8743 16.448
Pt 22.5934 14.9902 18.3462
Au 18.5281 12.0216 27.2499
Pt 20.0721 6.17321 11.8399
Au 17.1172 23.189 20.6489
Pt 13.336 18.0111 12.4036
Au 6.55945 14.2948 21.7108
Pt 19.8187 21.8524 16.8882
Au 23.1614 13.1251 7.30729
Pt 21.5148 12.6119 12.5369
Au 10.5087 17.2614 5.32017
Pt 13.1976 24.3082 14.6319
Au 6.59441 6.46905 13.9659
Pt 16.2652 8.99894 19.8794
Au 23.749 11.7731 14.2503
Au 20.1718 21.0061 23.2363
Pt 13.7233 8.39401 9.81262
Au 22.5018 5.32965 12.8445
Pt 18.7716 14.038 16.2064
Au 17.9013 11.7889 6.87928
Pt 22.6719 21.3394 12.4763
Au 14.3917 23.4779 21.3474
Pt 9.45753 15.5268 17.1634
Au 22.354 6.41005 20.001
Pt 14.4069 15.2947 22.1302
Au 5.55349 22.4601 18.4364
Pt 23.9743 13.2101 11.7995
Au 8.04284 20.8066 18.4505
Pt 20.5461 19.5091 15.8946
Au 9.63248 22.3868 20.9445
Pt 22.7611 19.3293 19.42
Au 15.912 6.65964 6.84245
Au 5.83779 9.14216 14.1936
Pt 12.7898 21.1966 18.0018
Au 21.2707 4.77017 15.2827
Au 21.1753 3.88476 10.9874
Pt 17.7501 12.2444 22.7462
Au 11.5417 5.02703 20.2316
Pt 17.1219 14.5336 21.6811
Au 5.0802 10.449 11.8287
Pt 14.4422 23.2138 16.84
Au 17.5913 18.2787 4.12466
Pt 17.5258 20.9058 13.9862
Au 4.75414 14.8234 17.1184
Au 9.29972 8.77996 22.7991
Pt 15.5097 11.548 24.7951
Pt 21.1441 7.2584 14.1917
Pt 14.3301 5.78203 16.9781
Pt 17.449 21.0629 18.6327
Pt 10.0363 18.0622 18.0427
Pt 11.5514 10.0019 21.7244
Pt 14.5947 17.2899 17.466
Pt 9.85998 8.66414 16.5979
Pt 7.05446 14.249 15.3603
Pt 18.8641 13.2687 24.9047
Pt 20.7223 16.8512 22.5484
Au 11.6354 8.80856 24.3262
Au 22.6445 22.6522 9.93104
Pt 15.8085 20.8268 21.1978
Au 22.2436 21.5416 21.214
Pt 9.53663 13.5193 10.4774
Au 20.9414 14.968 5.47925
Pt 15.312 10.9181 13.6135
Au 14.1171 13.8689 4.94381
Pt 16.778 11.8143 20.2351
Au 7.62384 24.6418 9.89821
Pt 20.7766 15.5275 25.003
Au 20.653 18.5651 24.6376
Pt 11.6225 13.7032 16.8195
Au 13.9802 8.94783 26.0033
Pt 19.2195 8.78533 12.0096
Au 4.33762 13.8748 14.5869
Pt 17.2258 22.6269 16.2992
Au 6.83684 22.1592 20.7418
Pt 8.83016 15.5464 12.1354
Au 16.4888 22.7817 5.71704
Pt 10.3251 20.2829 16.4964
Pt 8.504 24.7126 14.4907
Au 26.3657 17.273 17.3917
Au 16.6144 17.4898 25.438
Pt 17.8193 10.4693 13.4316
Au 5.73261 15.0064 10.2384
Pt 22.5647 11.0175 16.7239
Au 11.4546 10.8076 16.5598
Pt 12.3874 7.66416 16.972
Au 7.84471 12.8556 8.4796
Pt 11.0167 16.8866 12.9531
Au 18.0039 15.0068 26.6724
Pt 15.8322 10.6824 17.8968
Au 25.2866 21.0283 16.7507
Pt 11.0482 8.52808 19.3902
Au 25.0421 21.5875 10.8139
Pt 24.1174 17.037 19.082
Au 20.1794 17.9205 4.98729
Pt 15.833 24.8021 15.1498
Au 18.5238 7.30953 7.65184
Pt 15.1596 17.5319 10.5015
Au 25.4451 11.3125 16.3588
Pt 16.1315 13.6609 13.6654
Pt 22.4745 15.4948 11.8893
Au 3.94937 19.262 15.4026
Au 22.5036 6.52761 17.2201
Pt 18.7521 22.1369 11.8295
Au 19.8948 22.9274 21.0743
Pt 8.9128 18.8251 13.1826
Au 12.3421 15.8067 25.8814
Pt 12.7401 24.4263 10.8273
Au 8.23957 15.5071 9.32896
Pt 19.7144 14.2037 22.5525
Au 25.7049 19.3762 19.0099
Pt 6.74584 19.1907 10.5612
Au 9.45446 7.90608 8.39055
Pt 15.7209 14.7959 11.0874
Au 20.4389 4.95142 18.4715
Pt 18.4227 9.80505 9.40577
Au 22.2104 10.6237 8.00988
Pt 8.24532 20.8902 14.9382
Au 14.1618 8.81778 7.01293
Pt 9.96728 15.0079 14.6542
Au 4.39525 13.0412 11.9474
Pt 7.8852 16.7027 14.5463
Pt 8.85909 12.8067 13.1093
Au 8.40683 26.3757 18.9128
Au 12.4471 12.3682 22.867
Pt 11.8167 8.51051 14.6109
Au 7.26203 15.8072 23.8432
Pt 19.8038 6.71556 16.5643
Au 13.0115 28.581 12.4426
Pt 24.0583 8.85031 16.5396
Au 12.2093 11.8515 5.7522
Pt 11.9151 8.66993 11.7816
Au 24.6367 11.4553 9.52159
Pt 17.147 18.6205 20.4684
Au 9.98805 17.4939 8.03456
Pt 17.4459 5.28083 12.172
Au 22.4332 6.22148 10.2123
Pt 18.595 18.6159 22.7281
Au 17.6838 26.4651 13.7546
Pt 9.14375 10.2295 20.5011
Au 24.9989 15.674 23.0604
Pt 20.8006 19.1692 21.2764
Au 5.15341 18.0803 17.4369
Pt 9.91581 13.3762 18.8632
Au 24.9045 10.1863 18.8122
Au 5.88837 25.2775 15.0133
Pt 16.5265 9.31898 15.5634
Au 5.55045 15.8909 19.5045
Pt 8.62719 10.7045 15.0443
Au 23.8246 6.78038 14.8249
Pt 19.5568 12.2753 20.5018
Au 26.0523 11.7091 12.435
Pt 16.901 11.9488 15.5635
Au 24.6221 7.43849 18.814
Pt 23.1717 14.4982 14.1622
Au 16.944 9.28295 6.55622
Pt 21.7362 17.6586 17.2895
Au 12.393 13.6588 20.3603
Pt 20.3366 18.626 9.56332
Au 20.6 12.4065 6.28799
Pt 11.2915 9.53356 9.46546
Au 16.8785 4.9654 22.0104
Au 15.0005 11.3785 6.13454
Pt 13.8024 10.0408 23.3257
Pt 21.9249 18.6615 11.9407
Pt 16.9809 19.8459 6.79495
Pt 16.4973 9.46919 11.242
Pt 15.0611 18.2664 7.95531
Pt 9.03724 10.9755 17.8709
Pt 19.8495 12.0586 8.81566
Pt 23.3718 10.5433 11.896
Pt 23.2454 17.4365 21.7103
Pt 21.8862 16.6091 9.54406
Pt 21.4892 10.2167 20.8769
Pt 15.2421 22.3445 14.4701
Pt 11.4511 21.8902 10.8543
Au 24.4911 19.4884 12.4227
Au 25.1602 12.9252 18.9499
Pt 10.1715 21.286 13.2056
Au 4.56366 17.6816 10.1901
Pt 22.633 12.138 19.2012
Au 22.6582 19.6544 23.2374
Pt 18.8137 16.4984 20.7531
Au 18.7024 20.5923 4.84511
Pt 18.1721 14.427 11.9053
Au 8.90712 17.9536 23.3167
Pt 12.4563 18.4348 19.1739
Au 4.54824 20.5806 10.8855
Pt 18.1044 10.683 24.8402
Au 22.8935 15.9378 6.99212
Pt 20.6407 10.3927 13.5465
Au 16.4782 27.0695 16.1587
Pt 17.413 17.1058 6.53915
Au 12.5947 4.1566 10.2698
Pt 12.7279 14.8543 14.5012
Au 25.8998 13.5948 21.5439
Pt 18.9956 11.726 11.3687
Pt 15.0383 22.2526 19.082
Au 4.52032 9.60582 16.5869
Au 6.17772 24.9776 17.7213
Pt 20.2784 20.384 13.3982
Au 19.8082 9.72714 7.12706
Pt 22.8297 9.26587 14.2671
Au 5.10284 16.6131 14.887
Pt 12.2543 13.6806 10.0004
Au 23.9443 17.1343 13.7659
Pt 14.0692 12.7138 15.3748
Au 9.67211 22.6607 6.2195
Pt 8.35744 19.6005 8.52334
Au 13.1967 19.6868 23.3351
Pt 11.851 23.0074 8.55075
Au 10.5499 24.8798 19.6108
Pt 10.9651 23.7513 12.9518
Au 11.8515 15.1302 23.1315
Pt 15.4753 7.9746 17.6482
Au 16.523 26.1422 11.2627
Pt 6.42491 11.6634 16.3621
Au 9.16746 6.9093 20.8828
Pt 13.9056 13.8792 24.5629
Pt 8.50113 23.0945 11.9266
Au 19.156 17.3822 26.42
Au 13.0659 16.5747 4.60918
Pt 13.7432 13.0416 12.4965
Au 16.0186 20.6449 4.0753
Pt 13.6046 20.5798 8.68922
Au 18.2899 8.00012 25.6195
Pt 12.2709 16.2638 7.25078
Au 4.5854 21.2396 13.6982
Pt 10.8788 11.9497 8.47178
Au 21.1976 21.1473 8.06702
Pt 8.99796 17.8148 10.6533
Au 26.6364 17.7778 12.4293
Pt 18.7657 9.76112 20.4129
Au 19.9045 5.43495 9.12556
Pt 13.0804 6.23474 11.829
Au 14.7361 21.8996 23.4269
Pt 14.174 23.279 7.32513
Au 10.6503 19.9709 22.2726
Pt 13.4355 17.281 14.9123
Au 26.2245 15.4228 19.5325
Pt 17.8224 15.7794 14.3169
Pt 24.0984 17.2885 10.9826
Au 18.254 19.7713 25.0696
Au 18.868 22.2604 6.96723
Pt 21.2664 12.7713 15.1783
Au 10.0436 6.25725 18.3374
Pt 22.9558 19.5572 14.6727
Au 9.85209 24.95 7.7424
Pt 20.3731 14.9486 13.6161
Au 11.6405 7.20746 21.9536
Pt 9.37709 24.9311 16.9896
Au 7.34514 6.02786 19.096
Pt 16.1569 8.21261 8.89259
Au 24.1393 21.7154 19.1726
Pt 22.5287 9.022 18.7556
Au 6.70041 21.8722 9.51174
Pt 10.5844 6.77178 13.0054
Au 10.0476 19.9187 5.8553
Pt 19.0769 17.2889 16.2059
Au 12.6621 11.2912 25.4758
Pt 16.9923 18.3301 17.8958
Au 24.3687 11.2705 21.2722
Pt 19.7883 15.8198 18.2276
Pt 13.8675 8.49719 21.1563
Au 23.1685 19.7427 9.69512
Au 6.87363 9.97576 9.76883
Pt 12.7069 5.84294 14.5572
Au 17.374 24.3953 7.9754
Pt 20.5535 8.0975 9.45584
Au 13.986 26.8928 10.6396
Pt 9.25804 22.3465 8.90178
Au 10.1788 11.115 24.0175
Pt 9.2087 10.977 10.4598
Au 24.2878 7.49565 12.2243
Pt 8.3671 8.43202 18.7634
Au 20.6165 10.9067 25.8949
Pt 15.271 15.2867 15.5239
Au 26.3714 16.3244 9.96255
Pt 13.2553 15.5683 11.7573
Au 5.0462 13.1074 19.4048
Pt 19.443 22.821 14.4603
Au 13.9757 26.1169 16.6523
Pt 18.123 7.1785 10.386
Au 15.8934 15.9237 4.15164
Pt 21.4135 12.9338 24.2532
Pt 18.5074 14.5131 7.08491
Pt 16.4413 14.3904 24.2997
Pt 14.9025 19.5406 18.9279
Pt 9.01779 20.6406 10.8698
Pt 7.02215 16.2509 17.1155
Pt 16.1675 16.2984 19.7287
Pt 10.2969 17.668 15.3977
Pt 21.0715 10.4035 10.5685
Au 7.43317 18.0829 19.0631
Pt 14.6635 12.9568 9.59849
Au 16.9254 13.5277 4.94919
Pt 11.5313 11.6295 11.3966
Au 9.87641 27.9022 15.858
Pt 11.696 19.4206 14.0432
Au 24.0379 16.1094 16.3083
Pt 13.0909 13.6376 7.44927
Au 4.20246 18.595 12.7388
Pt 13.1353 22.1913 12.8494
Au 3.96471 11.1872 14.3504
Pt 18.827 5.97147 14.2266
Au 6.94844 17.1236 21.5567
Pt 11.3909 11.2118 19.3477
Au 17.9215 4.27742 19.6059
Pt 11.1486 19.2006 11.3555
Au 13.8994 22.5812 4.58754
Pt 16.9803 23.4718 10.4702
Pt 16.0763 8.89269 24.4548
Pt 20.7821 20.9074 10.7499
Au 19.7687 23.3232 9.46744
Au 18.8663 23.6472 18.571
Pt 10.509 14.5304 8.08136
Au 7.45923 21.0537 6.6119
Pt 6.38419 18.9923 14.2766
Au 23.2811 14.6336 25.5078
Pt 20.4407 10.5206 18.4308
Au 24.0079 14.836 9.41642
Pt 16.0516 10.9035 8.80088
Au 8.01298 19.8741 21.2242
Pt 21.1808 8.87905 16.3917
Au 20.8163 7.82264 21.8268
Pt 12.5646 21.6968 15.4112
Au 8.55375 13.4523 23.8256
Pt 23.7187 14.7631 20.6426
Au 5.5382 23.0785 11.6254
Pt 7.97616 18.7052 16.435
Au 5.53956 19.7752 8.22861
Pt 22.3138 12.6346 9.87102
Au 11.3148 14.5222 5.37105
Pt 13.7172 20.1762 11.2872
Pt 14.3059 19.8842 14.2269
Au 8.6534 15.4917 6.50037
Au 12.1262 22.2847 22.4897
Pt 7.1611 9.08389 16.517
Au 8.75314 10.3884 7.75456
Pt 11.0402 16.1069 10.2623
Au 25.8425 19.0706 14.8748
Pt 18.0433 19.9546 16.2569
Au 11.2804 22.0227 4.14409
Pt 10.9464 15.7819 19.4837
Au 11.2266 26.9949 10.5472
Pt 20.203 7.75958 19.0338
Au 3.91588 12.2505 16.9603
Pt 7.7867 12.5504 20.254
Au 20.0005 5.24512 21.1197
Pt 15.3372 20.5633 16.5795
Au 17.5093 21.7749 23.1724
Pt 18.3346 8.89347 22.8749
Au 13.2588 13.5123 27.0911
Pt 19.0292 15.9009 9.54525
Au 10.0522 12.6606 21.6322
Pt 21.2835 15.334 16.0369
Pt 19.4202 19.3239 7.11949
Au 14.9051 26.9053 13.6476
Au 26.4039 16.2945 14.8064
Pt 17.7244 18.2084 9.0055
Au 11.9815 24.1709 5.97949
Pt 17.5081 16.9486 11.5767
Au 26.1683 14.4866 16.9833
Pt 16.8995 7.74793 13.2996
Au 14.387 11.1265 27.5141
Pt 6.67033 10.6413 18.824
Au 4.78457 22.9404 15.9061
Pt 14.3541 8.52938 12.6725
Au 5.54951 11.2027 21.2374
Pt 15.9691 21.6386 12.0561
Au 22.7901 24.3175 14.3399
Pt 12.1623 21.4577 6.51728
Au 12.9122 19.8572 4.31418
Pt 24.0679 18.7115 16.9519
Au 5.62339 8.11001 18.6374
Pt 12.5823 18.7713 6.7555
Au 14.0026 5.55359 21.6646
Pt 16.5614 15.81 8.74139
Au 12.0077 4.57082 17.3702
Pt 10.2683 24.3992 10.2789
Au 24.5457 19.9251 21.3646
Au 20.6091 8.67917 24.3889
Pt 21.8161 8.26434 11.9095
Au 26.0094 19.1195 10.1376
Pt 11.1962 12.4488 14.4246
Au 19.6006 3.69003 13.21
Pt 8.63651 8.10823 14.1613
Au 11.3962 17.8919 24.387
Pt 20.923 14.5245 20.3272
Au 12.0892 7.25484 7.929
Pt 16.0512 7.49767 22.1722
Au 8.32891 5.89218 11.8003
Pt 20.6212 13.1621 17.8594
Au 8.72512 4.78706 14.2074
Pt 10.3907 6.28979 15.629
Pt 14.3241 22.5251 10.1846
Pt 13.2039 6.79987 19.254
Pt 16.3824 12.1302 11.4662
Au 12.5758 27.7794 15.0476
Pt 14.8608 24.3524 12.4038
Au 13.8503 7.23143 23.8311
Pt 20.0613 16.9041 11.8399
Au 16.9475 5.22364 9.0056
Pt 13.4544 9.47906 18.668
Au 24.0107 23.6242 12.1286
Pt 14.6609 20.7186 6.37208
Au 24.2117 12.8996 23.5685
Pt 14.5834 18.258 21.2795
Pt 18.9388 8.57011 14.8874
Pt 20.0461 11.0191 22.9626
Au 16.3977 6.23352 24.4928
Pt 20.4313 20.8569 19.1749
Au 9.3398 15.3931 22.0363
Pt 11.1587 14.1504 12.4196
Au 7.95275 18.2097 6.23785
Pt 18.0332 14.2077 19.2551
Au 14.216 5.83342 8.88706
Pt 12.6743 18.0685 9.45499
Au 9.1308 8.34896 11.0592
Pt 9.15756 12.9646 16.1619
Au 7.73704 6.47792 16.4623
Pt 14.0067 10.7215 10.9928
Au 25.7924 13.5491 14.4908
Pt 22.4365 14.9826 22.8682
Au 24.6897 21.848 14.2072
Pt 10.1581 22.4373 18.0644
Au 23.5985 23.1506 16.7076
Pt 16.1943 18.0734 15.2755
Pt 12.8085 10.6582 13.5948
Pt 17.63 13.3392 9.40631
Au 11.0682 13.4601 25.2183
Au 11.4238 26.6459 17.672
Pt 14.8548 15.9301 6.61538
Au 25.6753 9.46724 11.0869
Pt 21.0012 14.4008 8.22382
Au 21.7356 23.1424 18.8575
Pt 7.00156 20.8425 12.4935
Au 23.369 8.82055 9.70572
Pt 16.2415 22.0106 8.29538
Au 14.1154 17.0686 24.1407
Pt 11.979 24.0161 17.1014
Au 10.6961 4.27234 12.2345
Pt 17.827 6.47096 18.1585
Au 22.0919 18.5919 7.28726
Pt 8.20833 15.4201 19.6134
Au 23.0214 17.1657 24.4524
Pt 10.205 10.1224 13.1147
Au 5.60762 19.9882 19.4394
Pt 18.5017 19.4582 11.4612
Au 13.6362 24.9553 19.1025
Pt 18.2185 11.8221 18.046
Au 9.54144 12.6591 6.27534
Pt 7.22129 13.5953 17.9447
Au 4.10035 15.8253 12.3517
Au 18.4212 25.0815 16.1091
Pt 18.2336 9.05522 17.6189
Au 25.4183 9.45086 13.9749
Pt 12.1825 22.8337 19.8373
Au 7.96547 27.3259 13.8794
Pt 17.1089 15.826 17.2423
Au 9.65737 17.8175 20.6912
Pt 15.5708 6.78553 11.0542
Au 4.08593 10.4738 19.0819
Pt 8.09408 23.6725 19.0347
Au 16.3106 24.7457 18.0765
Pt 15.1323 5.59608 13.5263
Au 12.5422 25.6468 8.3725
Au 21.1521 23.509 12.1771
Pt 16.074 13.3786 17.4787
Au 22.6786 10.4281 23.5065
Au 23.1135 11.9464 25.9379
Pt 16.1517 10.2292 22.2211
Au 13.2793 3.61525 12.9014
Pt 15.8378 13.6137 7.35665
Au 12.0883 17.4795 21.8061
