561
Atoms. Timestep: 20433
Pt 16.9679 14.7403 22.0746
Au 7.18281 13.1608 24.0362
Pt 14.7026 8.42048 21.5219
Au 4.16726 14.9221 19.9683
Pt 18.7658 11.9192 12.6897
Pt 17.6053 6.79325 15.0495
Au 17.8649 22.4995 8.20369
Pt 13.2528 9.96068 14.8825
Au 24.7332 16.7185 20.5321
Pt 13.9451 21.5642 17.0851
Au 6.96109 10.7379 22.5028
Pt 17.7907 15.6179 18.8314
Au 22.5962 11.0468 6.24039
Pt 17.1242 21.5284 17.251
Pt 9.54707 23.0351 16.8596
Au 3.85793 18.5281 13.3163
Au 26.8023 20.9373 12.4854
Pt 14.1751 21.1914 21.7892
Au 18.1199 4.68849 13.6014
Pt 13.7948 23.751 15.362
Au 3.45112 12.427 10.9592
Pt 19.7707 17.7387 19.2207
Au 10.7542 6.87051 9.49782
Pt 14.8788 7.02393 19.1255
Au 14.8523 20.1314 26.2379
Pt 25.49 18.2894 16.0239
Au 5.81842 21.8647 18.7643
Au 9.64141 13.5557 6.68553
Pt 14.6082 22.6364 12.5179
Au 5.34138 12.8611 21.5919
Pt 19.2358 21.6976 15.4657
Au 5.96556 7.61944 19.1025
Pt 21.4851 13.3471 8.85265
Au 7.44065 14.838 7.75736
Au 13.7429 21.1287 5.8519
Pt 25.9356 14.674 10.6285
Pt 14.7406 9.27946 12.6085
Pt 13.9133 15.6737 9.93734
Pt 24.9506 11.529 16.5224
Pt 10.603 14.0451 21.2628
Pt 12.6112 11.9865 8.70723
Pt 21.5252 11.4208 13.2581
Au 15.7651 17.5644 26.1541
Pt 7.31312 9.6359 17.3772
Au 24.28 8.53355 12.9512
Pt 11.0081 9.58623 13.405
Au 26.7236 12.1956 10.0509
Pt 19.8966 17.122 11.8166
Au 7.18999 21.6229 11.4748
Pt 14.9711 23.6438 20.8097
Au 10.7695 3.94112 13.9421
Pt 22.8748 18.5584 15.7051
Au 3.90535 15.1497 10.1497
Pt 6.73395 19.0731 18.7064
Au 24.7588 19.9979 9.12643
Pt 21.7572 19.3278 17.8419
Pt 7.21805 11.6565 10.2661
Pt 21.4837 15.6689 10.3995
Au 26.9958 17.5406 18.9921
Au 3.92577 9.85628 12.111
Pt 19.6662 9.98067 14.4129
Au 13.0501 18.3505 5.30085
Pt 19.3549 20.0629 17.4493
Au 21.0323 17.3661 24.4978
Pt 21.2496 22.0497 17.7769
Au 18.8881 5.20404 17.0588
Pt 15.3121 17.9524 8.74208
Au 17.417 26.1302 18.0565
Pt 6.69968 15.4317 10.5832
Au 12.4097 23.414 6.51313
Pt 17.6714 17.2911 21.069
Au 5.72556 20.0934 20.9209
Pt 22.3836 18.3625 20.2269
Au 21.1436 6.41747 18.0501
Pt 13.3866 12.4886 15.5376
Au 16.4195 9.52105 5.66318
Pt 15.4861 8.30551 15.206
Au 17.9903 24.0826 21.6738
Pt 22.2411 13.3128 11.4621
Pt 13.4639 18.5657 13.3737
Au 20.1651 26.1665 14.19
Au 21.5777 23.1732 20.3197
Pt 11.4918 20.6387 20.7499
Au 19.1823 6.53854 8.50011
Pt 14.7201 11.5874 6.82354
Au 13.7979 21.0203 14.5202
Pt 7.11995 9.02247 11.1751
Au 20.0321 7.78031 16.0118
Pt 10.7854 16.6876 21.5084
Au 10.4159 18.3732 6.14566
Pt 9.6806 10.2825 18.7472
Au 10.598 25.7379 13.1953
Pt 16.2877 22.0294 14.7226
Au 2.38383 13.985 15.2766
Pt 11.3856 14.5455 15.3818
Au 4.30904 12.2559 19.1541
Pt 23.8256 14.192 19.2893
Au 20.4677 5.39177 14.8358
Pt 20.2603 11.2359 7.84278
Au 9.73297 20.035 24.6857
Pt 12.0049 23.5575 17.6652
Au 12.3652 23.1682 22.1985
Au 20.5975 18.7947 4.57906
Pt 11.4438 10.6452 10.8497
Au 20.939 13.2606 6.06207
Pt 17.6454 19.5187 7.66784
Au 4.68335 17.6153 20.4474
Pt 11.5298 6.23281 12.6854
Au 23.059 17.3153 22.6756
Pt 19.2467 12.8419 21.7327
Au 21.1992 8.82357 6.71661
Pt 9.93139 16.2296 7.7174
Au 16.689 15.3924 24.8454
Pt 12.7997 16.3318 12.2466
Au 9.73182 11.047 21.7208
Pt 7.327 15.3353 13.3267
Au 21.5088 12.4352 23.1213
Pt 12.468 8.28503 11.2518
Au 24.9257 22.3268 10.9514
Au 27.7343 16.4899 11.2838
Pt 24.3047 17.8602 13.5244
Au 21.8133 24.6883 17.9953
Au 16.22 12.0011 4.57837
Pt 15.7238 20.092 12.8759
Au 21.0852 10.0519 21.9676
Pt 20.9408 23.7455 15.4214
Au 22.227 23.4061 10.8322
Pt 20.3894 8.93181 9.4549
Au 26.9458 19.871 17.6856
Pt 12.2965 12.3111 22.2978
Au 13.4633 24.7901 8.72852
Au 23.8554 22.1153 21.5572
Pt 18.3474 11.062 9.58554
Pt 15.536 11.0861 15.8636
Pt 14.2225 18.7299 24.0416
Pt 23.7607 15.2042 9.35022
Pt 10.3461 8.42491 20.6679
Pt 21.4285 8.98443 12.0874
Pt 9.81768 12.2307 9.6056
Pt 19.4601 7.32943 13.2106
Pt 26.1151 13.7414 17.4072
Pt 5.33234 17.6563 16.7946
Pt 9.11454 14.6378 9.92441
Au 6.57822 5.75409 14.6223
Au 12.274 4.8627 10.5058
Pt 11.3695 13.0058 17.5839
Au 5.55996 7.67589 16.3089
Pt 17.0898 9.87656 13.742
Au 7.68275 20.1436 22.7645
Pt 13.084 13.9448 13.3659
Au 8.73872 21.9448 9.26639
Pt 20.3598 20.1464 20.2236
Au 9.33058 9.42556 9.32007
Pt 22.6015 16.69 17.8577
Au 17.9447 19.2485 4.93787
Pt 22.4683 18.011 11.3627
Au 25.9695 14.0526 8.00622
Pt 8.65298 19.5208 10.6476
Au 14.165 3.38915 15.3009
Pt 4.87284 16.2067 12.4181
Au 25.7352 22.8315 14.0589
Pt 13.2148 21.9661 8.57437
Au 21.2489 15.0828 22.9952
Pt 15.7133 19.1318 21.396
Pt 23.3209 11.6079 18.5069
Au 11.6905 15.2141 26.6324
Au 25.5891 21.2207 19.5263
Pt 23.8107 15.9762 15.2165
Au 10.5179 26.9824 16.0819
Pt 9.17196 6.16628 13.8402
Au 7.97625 6.98579 9.57801
Pt 8.67379 15.5029 20.0003
Au 16.2389 7.53504 23.6569
Pt 13.0486 18.2975 10.2903
Au 15.5972 14.1158 15.0653
Pt 20.1777 12.8926 15.0023
Au 15.8259 17.7597 19.0985
Pt 5.58587 13.5309 11.9848
Au 15.1128 23.313 6.94629
Pt 6.59754 18.1136 11.7436
Au 6.80003 9.27895 8.48307
Pt 4.84423 14.6857 14.5423
Au 21.2847 16.0522 5.06727
Pt 8.97932 13.8258 14.8089
Au 8.72144 15.1547 25.4928
Pt 21.9342 21.1497 15.4045
Pt 6.71137 13.9117 18.9538
Au 18.5922 17.4225 25.6802
Au 5.05207 7.8277 10.495
Pt 19.1385 15.9822 9.06382
Au 9.52235 5.12431 11.3008
Pt 17.2473 20.6668 10.4856
Au 13.5081 16.2931 15.0066
Pt 25.8425 15.5886 13.1202
Au 21.1532 7.93896 20.2273
Pt 23.3896 17.7657 8.86112
Au 15.3318 15.1964 12.5162
Pt 9.69158 9.57281 16.1774
Au 15.3414 15.0727 19.6784
Pt 19.4327 15.2782 20.8367
Au 20.8376 22.6553 8.35153
Pt 15.5477 21.3092 19.2558
Au 16.0066 5.68836 9.68956
Pt 12.6752 5.71992 18.1071
Au 6.34237 22.554 13.8206
Pt 12.8338 13.7944 19.7708
Au 9.81379 21.9454 22.4478
Pt 8.69465 18.7283 13.5547
Pt 8.27265 13.215 12.1072
Au 7.63746 5.52945 20.0509
Au 26.1655 16.8166 8.73286
Pt 17.1468 23.2412 12.0009
Au 25.2701 9.85821 9.70413
Pt 16.5971 24.0264 16.3884
Au 8.81127 10.9692 24.5589
Pt 11.7121 18.0016 23.947
Au 10.1398 25.3964 18.3499
Pt 22.8813 20.8563 19.6141
Au 25.4128 9.68311 18.3766
Pt 18.6184 13.4737 8.46279
Au 26.165 10.5923 12.1908
Pt 22.2767 20.727 10.5494
Au 12.1567 20.0357 25.9063
Pt 6.13156 17.325 14.4382
Au 12.4785 24.9225 20.0541
Pt 10.9498 17.2246 14.0975
Au 16.553 15.0325 4.24571
Pt 13.7047 16.0965 24.5535
Au 19.0508 10.7691 23.6511
Pt 18.4869 23.9133 14.272
Au 18.947 8.05866 21.914
Au 9.24479 6.24025 22.0575
Pt 24.5275 19.8181 11.7871
Au 16.5466 4.78115 18.7623
Pt 11.4649 21.8267 15.6903
Au 8.95228 8.74285 23.0341
Pt 21.2543 15.1747 15.7674
Au 19.4744 22.4132 10.6799
Pt 7.83123 17.795 20.971
Au 15.12 26.2824 16.3813
Pt 19.8035 11.0075 16.9535
Au 11.5209 3.42973 16.6661
Pt 17.1719 7.19482 17.6045
Au 10.8958 18.6299 11.7407
Pt 12.9196 14.9739 22.3144
Au 26.0514 22.3055 16.7493
Pt 12.038 20.5843 23.3123
Au 4.15718 17.9373 10.5135
Au 6.34731 15.6884 24.1057
Pt 11.2383 24.5621 15.4257
Pt 11.0914 19.9236 14.1071
Pt 24.1006 12.6485 9.63714
Pt 13.294 7.58871 13.8898
Pt 17.6894 11.6062 6.86527
Pt 9.63657 7.92829 11.7237
Pt 21.4375 13.3659 20.3919
Pt 23.581 13.9101 16.7194
Pt 19.1042 13.0338 18.7435
Pt 18.2761 21.2013 13.029
Pt 22.2416 19.7854 13.2051
Pt 15.2667 5.75131 14.1171
Pt 25.0794 16.1317 17.7887
Au 4.87433 10.5241 9.73889
Au 22.5689 18.0785 6.26517
Pt 14.051 10.5552 10.1573
Au 8.47674 25.3295 16.0898
Pt 20.3524 17.818 21.8972
Au 10.3544 10.9289 7.28619
Pt 16.8915 18.037 23.6872
Au 15.3929 25.4201 11.128
Pt 18.7107 16.7825 14.4202
Au 3.29887 19.1972 15.957
Pt 11.5292 14.3123 8.41106
Au 23.6961 7.53201 18.2989
Pt 20.6861 11.3013 10.7307
Au 3.23063 16.6041 15.2477
Pt 24.1883 11.0359 14.0317
Au 11.9295 15.2572 5.7707
Pt 11.7282 22.9323 13.3421
Au 23.8064 8.77571 7.58148
Pt 19.3337 8.83716 18.4891
Au 8.48472 19.746 7.73843
Pt 6.54082 12.8324 14.5289
Pt 17.7691 9.35591 16.2309
Au 14.1907 3.50297 17.9603
Au 16.4772 6.20635 21.2707
Pt 6.38911 19.904 13.7539
Au 7.8526 23.9223 18.742
Pt 14.1878 11.8343 18.2638
Au 19.7121 10.7411 5.28399
Pt 24.7895 13.0071 12.2422
Au 11.7768 3.54767 19.4262
Pt 15.9657 12.5206 8.90562
Au 24.6384 19.4161 21.3453
Pt 14.9733 5.88534 16.6994
Au 15.961 17.4325 14.2304
Pt 10.0001 19.2496 16.4705
Au 15.4157 19.2481 16.7088
Pt 9.07838 14.7761 17.3653
Au 18.1137 22.0577 24.0041
Pt 15.1029 8.23422 10.1074
Au 16.4066 10.0498 24.8435
Pt 10.0086 19.0045 22.1522
Au 14.1345 8.89085 7.03366
Pt 10.3828 5.86496 19.6143
Pt 15.4017 9.30182 17.7936
Au 26.9463 11.1604 14.7215
Au 3.25711 16.924 18.1485
Pt 17.7053 8.18703 9.8848
Au 13.7347 16.1309 3.75075
Pt 12.9961 18.6316 21.7106
Au 27.2864 20.4261 15.0972
Pt 13.1107 19.4501 7.88558
Au 7.04059 5.47267 17.4133
Pt 15.4271 19.015 6.30051
Au 13.7242 14.4585 17.2853
Pt 11.7731 11.3994 19.8428
Au 16.088 25.2605 8.44202
Pt 17.3753 10.9943 18.2456
Au 26.8862 18.9935 10.5568
Pt 23.3575 22.1442 13.077
Au 12.0688 9.16821 8.61343
Pt 12.6013 7.05714 20.5542
Au 4.11465 19.5774 18.5539
Pt 18.6391 10.5955 20.5988
Au 11.1893 17.0229 3.93062
Pt 11.1219 18.267 19.2848
Pt 15.5442 20.8546 8.18429
Au 14.157 11.4838 25.4626
Au 17.5229 19.882 25.6894
Pt 12.6422 16.8667 7.84921
Au 23.4948 22.3353 8.67529
Pt 14.5131 10.8901 22.8663
Au 25.0491 11.3655 7.50236
Pt 7.03638 11.4394 19.4643
Au 15.7607 23.3354 23.2787
Pt 25.4709 13.482 14.7582
Au 3.54403 11.8474 16.4206
Pt 21.5644 17.122 13.8822
Au 6.7438 7.5045 21.8009
Pt 11.0977 15.5176 18.9389
Au 4.22724 14.4921 17.2742
Pt 14.6102 20.3354 10.4815
Au 13.0769 17.6468 26.5793
Pt 19.5929 13.8481 10.8904
Au 23.6177 23.347 15.7999
Pt 10.6548 18.6063 8.86437
Au 27.4534 11.4815 17.4221
Pt 11.8463 13.6787 10.8966
Pt 12.6203 20.7324 12.038
Au 9.18735 3.84807 18.3153
Au 28.4499 15.7947 13.8814
Pt 9.89686 13.1566 23.5658
Au 13.7608 8.7375 24.2234
Pt 13.2078 11.4242 12.682
Au 12.1874 12.476 6.10194
Pt 11.0482 16.7992 16.6982
Au 5.55654 20.6877 16.3242
Pt 14.5603 23.9454 18.0298
Au 24.5469 8.90596 15.8716
Pt 21.9494 9.28348 17.4969
Au 20.8414 6.59161 10.8365
Pt 17.0478 8.51289 19.8847
Au 7.09752 6.35996 12.012
Pt 8.89789 16.7735 11.7613
Au 22.7461 6.75011 15.8743
Pt 16.4424 13.4136 17.59
Au 11.679 4.92024 21.8456
Pt 6.27869 10.9793 12.6396
Au 9.81542 23.6462 11.2885
Pt 16.4626 10.6136 11.1908
Pt 20.5625 14.7903 13.1315
Pt 8.1448 17.3177 9.30212
Pt 8.46886 11.1333 14.3679
Pt 7.52543 18.9023 16.1112
Pt 12.297 9.67328 21.9247
Pt 8.63434 15.4627 22.699
Pt 6.35869 16.4033 18.757
Pt 9.37978 12.8756 19.2955
Au 20.0557 24.7029 11.9818
Pt 20.8244 18.1007 9.33244
Au 28.1342 15.4883 17.6511
Pt 16.1774 9.94348 8.41409
Au 16.6907 12.6853 25.56
Pt 8.02309 8.67516 13.7476
Au 7.74333 11.899 7.74337
Pt 14.0607 14.1079 7.79366
Au 14.2347 13.7503 4.96179
Pt 18.3862 19.6714 22.1807
Au 19.8784 19.7474 24.2806
Pt 17.9395 14.3052 13.5872
Au 16.3281 7.31936 7.58522
Pt 22.1203 9.04596 14.6623
Au 12.8811 26.7158 14.8827
Pt 11.1226 16.3036 10.2169
Au 6.24983 19.4389 9.34798
Pt 22.8406 13.5429 14.1663
Pt 8.65717 12.0776 16.8905
Pt 17.7796 12.1942 15.4559
Au 17.7209 26.0386 12.5038
Au 24.3328 16.1316 6.8024
Pt 15.1086 16.5845 22.3121
Au 18.3406 5.67548 11.0727
Pt 17.9213 17.8364 17.1685
Au 7.60592 17.4412 6.67156
Pt 7.9482 13.1637 21.452
Au 14.7474 16.2548 6.28686
Pt 16.9006 9.66969 22.2971
Au 13.5712 19.5145 19.1314
Pt 16.9677 23.6893 19.1145
Au 17.6145 26.4168 15.252
Pt 16.8975 12.1912 22.8718
Au 13.4911 17.0863 17.7529
Pt 20.0063 19.3292 14.4175
Au 28.1354 17.8345 16.1034
Pt 10.2593 22.8186 19.6855
Au 9.20158 15.8485 5.22966
Pt 13.2396 16.567 20.2983
Au 13.9589 6.19759 22.8273
Pt 10.4066 14.9724 12.7775
Pt 14.883 13.7127 23.739
Au 13.3119 4.0599 12.8692
Au 8.97583 23.6039 13.9864
Pt 8.58512 21.1463 14.9917
Au 8.62658 4.11629 15.6014
Pt 15.7856 12.206 13.2485
Au 13.7921 22.026 24.5698
Pt 20.7345 22.2115 13.1023
Au 15.9794 16.1535 16.7405
Pt 17.1996 16.9653 6.95274
Au 4.70633 9.83247 17.9289
Pt 11.1654 8.03547 18.124
Au 13.2847 25.1459 12.8056
Pt 17.8491 18.5737 12.5403
Au 14.1555 4.71894 20.4455
Pt 23.4076 10.7428 11.4723
Au 12.4651 12.6276 27.1476
Pt 10.9209 15.6077 24.0315
Au 10.965 21.0447 7.16216
Pt 23.9669 20.7827 17.0994
Au 15.9819 4.31005 12.0161
Pt 19.0256 23.6633 17.2387
Pt 17.6431 15.9642 11.4669
Au 5.64395 10.194 15.1649
Au 28.1278 13.553 15.538
Pt 15.8325 24.5832 13.9342
Au 16.7507 21.4706 5.81282
Pt 12.3979 13.4918 24.6426
Au 5.92533 17.9893 22.8239
Pt 15.9629 20.6039 23.6578
Au 23.9514 23.1608 18.62
Pt 10.6879 12.3787 12.8411
Au 22.0875 20.0676 22.442
Pt 12.5611 5.51447 15.3167
Au 4.83172 20.389 11.5614
Pt 20.3803 15.3844 18.2725
Au 2.82896 14.52 12.656
Pt 12.1068 10.3884 17.2475
Au 15.5172 23.0013 9.8448
Pt 10.2141 5.83391 16.8417
Au 22.5021 24.6291 13.3476
Pt 17.4936 19.5937 15.1208
Au 15.0727 26.0233 19.4622
Pt 14.6997 12.9707 21.2602
Au 20.0136 22.0082 22.1825
Pt 16.76 7.44336 12.4006
Au 23.3385 9.4592 20.1615
Au 18.6833 16.7665 4.32079
Pt 16.5139 14.0165 6.69229
Au 18.9678 13.6452 24.2669
Pt 17.7194 19.6967 19.4807
Au 4.0307 21.1214 14.1084
Pt 18.5232 14.7787 16.3038
Au 12.6774 19.0891 16.1761
Pt 24.4826 18.6938 18.5515
Au 8.41941 17.6967 24.0873
Pt 11.1723 20.8602 18.1245
Au 5.53357 13.2947 9.0861
Pt 8.22853 21.0731 17.7475
Au 13.4677 6.67269 8.81864
Pt 18.8781 9.41361 11.7839
Pt 9.66426 21.2507 12.4332
Pt 6.70789 15.0662 16.3312
Pt 8.62483 7.53411 18.5217
Au 7.72411 22.0622 20.6979
Pt 15.4816 17.7144 11.3843
Au 5.57651 16.7868 8.51817
Pt 9.05571 19.9031 19.8687
Au 18.0963 24.7212 10.0002
Pt 13.3274 7.9674 16.7456
Au 27.4583 13.3127 12.7305
Pt 8.68334 16.5996 15.3633
Au 11.5704 10.7665 24.4658
Pt 17.006 21.7113 21.3556
Pt 20.0375 19.768 11.5772
Pt 22.5633 10.5989 8.94566
Au 19.7828 17.9352 6.90181
Pt 20.9661 10.908 19.448
Au 15.931 17.6442 4.1162
Pt 21.6166 15.814 7.70356
Au 26.9951 18.2213 13.3967
Pt 8.81088 17.4592 18.1665
Au 25.7595 12.132 19.5918
Pt 16.4112 15.3702 9.09974
Au 5.42347 8.03496 13.3863
Pt 18.8086 16.2001 23.3104
Au 23.241 8.11454 10.3217
Pt 14.2376 6.37436 11.7147
Au 18.5711 8.9698 7.27335
Pt 7.87836 9.24638 20.3589
Au 23.759 14.5042 21.9978
Pt 24.9875 17.1923 11.0294
Au 21.8993 6.89429 8.34877
Pt 21.3588 13.1051 17.6282
Pt 20.3768 17.55 16.4248
Pt 15.5062 10.689 20.2646
Au 16.7363 4.07551 15.9047
Au 18.58 13.1846 4.68194
Pt 26.4612 15.8289 15.6112
Au 22.2557 6.65726 13.1812
Pt 17.8732 18.1209 9.8481
Au 19.5003 24.9789 19.5643
Pt 11.1208 20.9447 9.95381
Au 11.4747 7.44952 23.1746
Pt 19.6323 20.3448 9.04045
Au 10.0485 12.8729 26.1607
Pt 9.0256 10.5821 11.8498
Au 10.2952 17.5496 26.1159
Pt 13.292 9.31114 19.3817
Au 15.3077 27.0614 13.5854
Pt 6.34116 15.4768 21.3928
Au 5.18596 9.86551 20.6307
Pt 13.0692 22.2881 19.621
Au 19.0792 15.1672 6.43456
Pt 17.0529 12.9236 20.1698
Au 23.5087 11.8885 21.2747
Pt 22.3334 11.3868 15.8964
Au 11.6043 25.6102 10.6326
Pt 10.9886 7.65023 15.1394
Au 19.6821 20.8737 6.37621
Au 10.8693 23.5512 8.71059
Pt 23.336 15.5104 12.3511
Au 22.4411 25.9202 15.6995
Pt 24.6748 20.3962 14.5292
Au 22.0928 20.1805 7.80558
Pt 19.0326 22.1934 19.4788
Au 12.7199 26.1832 17.6032
Pt 14.3842 13.1569 10.8658
Au 23.4823 13.5843 6.94677
Pt 8.23503 7.39862 15.9726
Au 19.8912 26.1945 16.8718
Pt 10.9282 11.7165 15.2698
Au 26.5146 14.7918 19.8541
Au 18.813 6.33221 19.675
Pt 6.07613 12.2333 17.0344
Au 14.4855 14.3228 26.4165
Au 6.83516 23.1204 16.3609
Pt 17.0641 13.3616 11.0749
Au 3.87148 12.1196 13.7283
Pt 21.9983 15.8936 20.4059
Au 12.6508 23.2044 10.8231
