561
Atoms. Timestep: 20148
Pt 7.72243 7.10812 15.2045
Au 5.73601 8.78228 11.3244
Pt 7.60962 10.7967 11.1595
Au 5.58313 8.8472 15.1149
Pt 5.66398 10.8301 13.1191
Pt 5.57905 10.916 17.0286
Au 6.66241 13.1352 6.45191
Pt 6.52486 15.1562 8.21401
Au 3.71169 12.8679 13.004
Pt 4.70963 15.0584 10.3187
Au 3.60332 14.9702 18.9752
Pt 5.55801 12.8875 15.045
Au 7.00663 6.41073 17.7233
Pt 5.45443 14.8704 17.0396
Pt 7.42189 10.9913 19.1188
Au 8.70474 13.0696 4.60728
Au 3.54803 16.6388 12.9694
Pt 7.16739 17.5366 6.86779
Au 3.53782 14.7985 15.0376
Pt 5.55612 17.1938 11.2134
Au 3.52352 16.9147 16.9556
Pt 5.43141 16.8401 15.0196
Au 6.60953 17.5916 23.5984
Pt 5.39114 16.93 18.968
Au 4.72255 17.5154 21.4968
Pt 5.50091 14.9699 20.9624
Au 5.02289 17.5062 8.58897
Au 3.2803 19.1579 12.1378
Pt 5.1539 19.6434 10.4021
Au 4.65509 19.5484 19.5537
Pt 5.46742 18.8896 17.0006
Au 6.45535 19.689 21.75
Pt 6.73657 21.444 19.6304
Au 3.64657 18.9112 14.9188
Au 4.88469 21.5356 17.6003
Pt 5.62562 20.8716 15.0847
Pt 9.71462 7.14197 13.2518
Pt 7.87161 7.05415 11.3655
Pt 7.46704 9.03246 17.1665
Pt 9.70739 5.30636 15.252
Pt 9.58276 7.20067 17.2078
Pt 5.60141 12.6752 11.106
Au 7.60508 8.7033 9.18451
Pt 9.7983 8.92175 7.37552
Au 5.6584 10.6562 9.24441
Pt 7.61287 8.9384 13.2272
Au 7.81855 5.22821 13.3261
Pt 9.60729 8.97493 11.1776
Au 9.01177 4.58262 17.7935
Pt 7.4763 10.9396 15.1166
Au 9.50462 9.09425 15.2085
Pt 9.47172 10.9572 13.1306
Au 6.8216 8.22606 19.7742
Pt 8.99868 6.50199 19.7199
Au 10.9322 4.54074 19.8344
Pt 9.39373 9.07905 19.2147
Pt 11.3344 9.14663 21.1671
Pt 9.45947 12.7686 7.17044
Au 11.7865 8.93637 5.35566
Au 4.81124 13.1356 8.51436
Pt 7.48806 12.7378 9.10301
Au 9.48906 10.8648 9.15932
Pt 11.3076 14.9304 7.03604
Au 3.74434 10.9364 15.0169
Pt 5.54901 14.8494 12.9868
Au 7.46002 12.8655 13.053
Pt 9.38349 12.9231 11.0706
Au 3.61597 12.8514 17.0288
Pt 7.2985 12.9295 17.1562
Au 9.36268 11.0542 17.2005
Pt 9.31213 12.9287 15.1457
Au 5.26509 12.7934 19.2431
Pt 7.28725 12.9405 21.123
Au 9.30052 11.0304 21.1412
Pt 9.2607 13.0022 19.1925
Au 4.93903 10.1036 19.4722
Pt 8.83101 10.3889 23.5769
Au 10.5432 10.3853 25.615
Pt 11.3668 11.0818 23.1334
Pt 8.47059 15.1517 6.27934
Au 7.58459 10.6681 7.13829
Au 9.30919 14.9191 8.96129
Pt 7.61502 17.1557 9.36183
Au 11.479 16.8797 9.17073
Pt 9.68384 17.1928 7.28317
Au 7.34668 14.8902 10.9514
Pt 7.42401 16.8484 13.095
Au 9.37583 14.9007 13.0848
Pt 9.45171 16.8775 11.1598
Au 7.3809 14.902 15.0852
Pt 7.30728 16.8655 17.0695
Au 9.30749 14.9039 17.1526
Pt 9.35131 16.8375 15.1457
Au 7.26588 14.8867 19.0887
Pt 7.2815 16.9175 21.0668
Au 9.17759 14.9175 21.2237
Pt 9.23297 16.842 19.1555
Au 7.16264 14.9015 23.1606
Pt 9.20611 12.9639 23.1448
Au 9.20492 14.9361 25.1069
Pt 9.19866 16.8955 23.1091
Au 8.97409 17.5359 4.77133
Au 8.79003 19.8182 6.50295
Pt 7.02054 19.6744 8.57664
Au 9.55753 19.0774 9.2125
Pt 8.94179 21.6368 8.66866
Au 7.58403 19.0977 11.217
Pt 5.67886 18.9124 13.1617
Au 9.43932 18.8478 13.1802
Pt 9.47882 21.0521 11.2206
Au 7.44187 18.838 15.1191
Pt 7.46551 20.7971 17.0868
Au 9.37049 18.7946 17.1588
Pt 9.44452 22.8012 17.1371
Au 7.29325 18.8608 19.1102
Pt 8.65096 21.4413 21.6053
Au 9.18356 18.8586 21.1804
Pt 9.3352 20.8473 19.08
Au 8.61999 17.6241 25.5537
Au 10.5156 19.6136 25.7473
Pt 10.5463 21.5175 23.6028
Au 6.83442 21.7733 10.4981
Au 4.90205 21.4075 12.49
Pt 7.50245 21.0342 13.1342
Au 11.3957 20.9102 13.2216
Pt 9.44439 22.9574 13.2034
Au 9.39882 20.8912 15.1387
Pt 6.93471 23.296 17.7926
Au 8.69045 25.3285 17.7963
Pt 7.52837 22.8091 15.2239
Au 8.43173 19.7505 23.8175
Au 6.78769 23.3223 21.4689
Pt 8.76051 23.4372 19.7438
Pt 11.6256 7.10248 11.2854
Pt 15.5598 9.18109 9.33622
Pt 11.6603 5.27472 13.3138
Pt 13.6858 5.32823 11.3754
Pt 11.5494 5.30177 17.2513
Pt 13.5676 5.31582 15.2452
Pt 10.8532 6.56999 21.7186
Pt 13.5018 5.35968 19.2949
Pt 12.7653 6.72442 23.6134
Pt 11.5846 10.9419 7.31821
Au 11.7308 6.92865 7.3144
Au 9.68428 6.8469 9.26509
Pt 11.5948 8.97323 9.2785
Au 11.8476 5.06908 9.44157
Pt 13.533 11.0173 5.48749
Au 9.78212 5.0406 11.4113
Pt 11.5026 9.11218 13.1976
Au 13.5607 7.21374 13.2823
Pt 13.5056 9.13222 11.2566
Au 11.5828 7.18713 15.2609
Pt 11.4357 9.15454 17.25
Au 13.5113 7.19919 17.2601
Pt 13.4601 9.17077 15.2619
Au 13.6017 3.63911 17.2756
Pt 11.5167 7.20412 19.1867
Au 8.64046 8.24545 21.8808
Pt 13.3864 9.21008 19.2588
Au 6.69172 10.33 21.6928
Pt 10.7237 8.48082 23.6429
Au 15.2689 9.1375 25.2842
Pt 13.3433 9.2563 23.2007
Pt 11.4721 12.8057 5.35841
Au 15.6262 9.20162 5.25617
Au 9.71133 10.6931 5.3108
Pt 11.3863 12.9869 9.08206
Au 13.4912 11.1015 9.22791
Pt 13.4383 13.0566 7.16492
Au 11.4537 11.057 11.1634
Pt 11.3531 12.9739 13.1525
Au 13.4423 11.1067 13.2244
Pt 13.4035 13.0197 11.1787
Au 11.4198 11.1011 15.1962
Pt 11.31 13.0186 17.2094
Au 13.3904 11.1442 17.2536
Pt 13.3627 13.0302 15.2203
Au 11.3458 11.1273 19.2233
Pt 11.2313 13.0434 21.28
Au 13.3272 11.1859 21.2545
Pt 13.3014 13.0856 19.2883
Au 12.5348 8.47256 25.633
Pt 11.1538 12.9552 25.0095
Au 13.2275 11.1698 25.3936
Pt 13.2589 13.0851 23.3445
Pt 11.6194 17.1838 5.38974
Au 13.3388 14.9135 5.07014
Au 10.4345 15.1093 4.35922
Pt 11.5346 19.0842 7.32588
Au 13.4132 14.9288 9.11184
Pt 13.4803 16.8715 7.16134
Au 11.3688 14.8845 11.1108
Pt 11.3951 16.8226 13.1888
Au 13.3541 14.9197 13.1923
Pt 13.4062 16.8422 11.2067
Au 11.3237 14.8973 15.17
Pt 11.3135 16.8281 17.1971
Au 13.2968 14.9413 17.2512
Pt 13.3274 16.8471 15.2288
Au 11.2545 14.95 19.2536
Pt 11.214 16.8635 21.2638
Au 13.2565 14.9845 21.3291
Pt 13.2629 16.8604 19.2663
Au 11.2069 14.9641 23.2732
Pt 11.1788 16.9728 25.0831
Au 13.1001 14.932 25.4279
Pt 13.204 16.8791 23.3385
Pt 10.917 21.6163 6.8245
Au 12.8534 21.6269 4.91904
Au 10.9019 19.7088 4.74553
Pt 11.5312 20.9893 9.33824
Au 13.4569 18.861 9.25264
Pt 13.5189 20.9944 7.4422
Au 11.4381 18.8636 11.2391
Pt 11.3549 22.8539 15.2047
Au 13.3979 18.8318 13.2506
Pt 15.4076 22.9277 11.359
Au 11.3865 18.814 15.1988
Pt 11.3468 20.8387 17.1687
Au 13.2986 18.8169 17.2291
Pt 13.3594 20.9071 15.2356
Au 11.2535 18.7808 19.214
Pt 11.2438 20.835 21.112
Au 13.2229 18.7737 21.2743
Pt 11.2999 22.7939 19.1378
Au 11.1298 18.8949 23.1913
Pt 12.4391 21.4036 25.3446
Au 15.0847 21.0203 25.1459
Pt 13.2033 20.8548 23.008
Au 12.859 23.602 6.81573
Au 8.83837 23.6692 10.6159
Pt 11.4756 22.9124 11.3075
Au 10.8599 25.4793 10.7675
Pt 10.8948 23.516 8.7728
Au 13.46 20.8934 11.306
Pt 11.4585 24.7438 13.2961
Au 13.398 22.8884 13.3055
Pt 13.4575 24.8132 11.397
Au 9.39707 24.8501 15.1724
Pt 11.3283 24.7293 17.1819
Au 13.2776 22.8152 17.1916
Pt 13.3021 24.7841 15.2793
Au 10.627 25.458 19.769
Pt 10.6456 23.4614 21.6676
Au 12.609 25.4057 21.7024
Pt 13.2311 24.7054 19.1468
Au 8.65787 23.3648 23.3786
Au 12.4881 23.5232 23.7389
Pt 13.2049 22.7972 21.1182
Pt 13.6178 9.06636 7.37031
Pt 15.6706 5.39739 9.51531
Pt 15.655 7.28369 7.51254
Pt 15.5983 5.37556 13.3202
Pt 17.5832 5.42834 11.4151
Pt 15.5718 5.36547 17.3324
Pt 17.5562 5.41906 15.355
Pt 15.4037 5.46674 21.2132
Pt 17.4352 5.4577 19.3468
Pt 15.3127 7.28756 23.1664
Pt 19.2385 7.38194 23.1839
Pt 17.6074 11.1258 5.55208
Au 13.8682 7.09767 5.53802
Au 13.9174 5.19236 7.53513
Pt 13.625 7.17935 9.37943
Au 17.5075 5.31574 7.56922
Pt 17.5936 9.18768 7.42867
Au 15.5839 7.27805 11.3476
Pt 15.499 9.19962 13.288
Au 17.5256 7.29442 13.3659
Pt 17.5479 9.22875 11.3274
Au 15.5171 7.23611 15.3143
Pt 15.4243 9.22336 17.2951
Au 17.4738 7.29962 17.3398
Pt 17.4728 9.25289 15.3272
Au 15.4299 7.30062 19.2707
Pt 13.4042 7.32976 21.1618
Au 17.3269 5.36158 23.0766
Pt 17.3351 7.38122 21.2564
Au 12.8516 4.71298 21.8668
Pt 15.343 9.24988 21.3016
Au 17.2723 7.24993 25.0506
Pt 17.2879 9.24008 23.2485
Pt 15.4928 12.926 5.38492
Au 17.5225 14.9184 5.12938
Au 15.5348 11.067 7.28155
Pt 15.4421 13.077 9.1345
Au 17.5055 11.1923 9.31067
Pt 17.4975 13.1036 7.26513
Au 15.472 11.1572 11.2635
Pt 15.4052 13.0655 13.25
Au 17.4549 11.1935 13.3025
Pt 17.4412 13.115 11.2627
Au 15.4219 11.1486 15.2791
Pt 15.3461 13.1012 17.2857
Au 17.4033 11.2426 17.31
Pt 17.3921 13.1213 15.3021
Au 15.3517 11.2251 19.3043
Pt 15.285 13.1397 21.4258
Au 17.318 11.2499 21.3698
Pt 17.338 13.1517 19.3706
Au 15.2643 11.162 23.3701
Pt 15.2564 13.0509 25.2318
Au 17.2414 14.9949 25.5263
Pt 17.2658 13.1647 23.4032
Pt 13.5247 19.0747 5.50391
Au 15.4454 17.0698 5.12986
Au 15.4486 15.0066 7.03308
Pt 15.4143 16.8871 9.16171
Au 17.4064 15.0237 9.23424
Pt 17.4079 16.9125 7.17514
Au 15.3852 14.9605 11.2004
Pt 15.3432 16.8589 13.2477
Au 17.384 15.0006 13.2748
Pt 17.3792 16.8907 11.2668
Au 15.3357 14.966 15.2588
Pt 15.2799 16.8577 17.2817
Au 17.3269 15.0206 17.3378
Pt 17.3128 16.8751 15.3033
Au 15.2903 15.0006 19.3411
Pt 15.2466 16.9062 21.4072
Au 17.2558 15.0706 21.411
Pt 17.2809 16.9204 19.3764
Au 15.23 15.0622 23.5079
Pt 13.1317 18.9355 25.0163
Au 15.1082 17.0111 25.4724
Pt 17.2099 16.9718 23.4886
Pt 15.4779 22.9233 7.55862
Au 15.5271 21.0886 5.49598
Au 15.441 18.9224 7.30039
Pt 19.2824 22.923 11.4844
Au 17.4306 18.8694 9.26552
Pt 17.4473 20.9835 7.4699
Au 15.4201 18.8256 11.2749
Pt 15.3655 20.9435 13.3132
Au 17.2951 18.8321 13.3243
Pt 17.3395 20.9411 11.405
Au 15.2845 18.833 15.2775
Pt 15.2497 20.8875 17.2491
Au 17.2502 18.7972 17.3095
Pt 15.2974 22.9275 15.2811
Au 15.2551 18.7885 19.3017
Pt 15.2192 20.8306 21.2352
Au 17.2393 18.8582 21.3982
Pt 19.1028 22.8851 19.2657
Au 15.1978 18.8883 23.3417
Pt 15.1029 22.8109 23.0963
Au 17.0974 19.026 25.3095
Pt 17.1027 20.9082 23.2148
Pt 17.3937 22.9172 9.49566
Au 18.1012 25.4599 8.86671
Au 15.4746 20.9184 9.36446
Pt 13.484 22.9213 9.42201
Au 15.4273 24.9803 9.39958
Pt 19.9896 23.556 8.96873
Au 12.76 25.4608 8.83518
Pt 15.3179 24.8328 13.3249
Au 17.226 20.8722 15.3363
Pt 17.2719 22.9193 13.3884
Au 15.2447 26.6708 15.3377
Pt 15.2063 24.7685 17.2685
Au 17.1828 26.6809 17.3346
Pt 17.3348 24.8228 11.443
Au 13.2696 20.7985 19.2159
Pt 15.1993 22.8142 19.2215
Au 17.1874 20.8405 19.2737
Pt 17.1699 22.8762 17.2852
Au 15.1714 26.5659 19.2705
Pt 15.1656 24.6581 21.1875
Au 17.6925 25.41 21.8522
Pt 17.1181 22.8011 21.2057
Pt 17.624 7.29504 9.42991
Pt 19.5111 5.45723 13.4012
Pt 19.5102 7.31394 11.4329
Pt 19.4432 5.458 17.3729
Pt 21.3476 5.51622 15.4234
Pt 19.2732 5.59284 21.2259
Pt 19.4134 7.36465 19.3474
Pt 19.5314 11.1667 7.46055
Au 17.5398 7.2484 5.58937
Pt 19.5213 9.22589 9.39724
Au 19.631 7.16702 7.42484
Pt 21.4205 9.27699 7.55034
Au 19.511 5.27958 9.52017
Pt 19.4957 9.28485 13.3294
Au 23.3188 5.42343 13.5724
Pt 21.4769 9.29259 11.3922
Au 19.4514 7.3521 15.3857
Pt 19.4273 9.31385 17.368
Au 21.2991 5.34514 19.3096
Pt 21.331 7.42346 17.4243
Au 17.4077 9.29827 19.3217
Pt 19.3669 9.25205 21.3269
Au 21.4198 7.20698 21.4686
Pt 21.392 9.22097 19.4344
Au 19.2341 9.21235 25.2638
Pt 17.2862 11.1461 25.125
Pt 21.1953 9.29703 23.2644
Pt 19.5741 13.0627 5.53321
Au 21.528 11.2055 5.53366
Au 19.5505 9.22577 5.493
Pt 19.4972 13.1443 9.29512
Au 21.5918 11.1799 9.43138
Pt 21.4585 13.1223 7.49143
Au 19.5043 11.2483 11.3272
Pt 19.4526 13.1587 13.3028
Au 21.5503 11.311 13.2852
Pt 21.612 13.1584 11.2982
Au 19.4347 11.2799 15.3223
Pt 19.3855 13.1966 17.3731
Au 21.3965 11.3055 17.4099
Pt 21.4733 13.1821 15.3672
Au 19.4032 11.2774 19.3894
Pt 19.3323 13.1866 21.465
Au 21.3595 11.2496 21.3963
Pt 21.4084 13.2198 19.4436
Au 19.2904 11.1952 23.3484
Pt 19.2762 13.1383 25.1993
Au 21.2166 11.224 25.2496
Pt 21.3276 13.1462 23.3623
Pt 17.3927 19.0345 5.61504
Au 19.4605 17.0206 5.28877
Au 19.4065 15.0909 7.27957
Pt 19.3931 16.9886 9.24984
Au 21.4504 15.1296 9.33973
Pt 21.408 17.1095 7.36695
Au 19.4474 15.0427 11.2964
Pt 19.3708 16.9076 13.3361
Au 21.4657 15.0449 13.3518
Pt 21.4139 16.9946 11.387
Au 19.3985 15.0346 15.3348
Pt 19.3312 16.8941 17.3546
Au 21.4228 15.0659 17.3905
Pt 21.431 16.9311 15.3746
Au 19.3172 15.0715 19.4155
Pt 19.2711 17.0221 21.4712
Au 21.2846 15.1168 21.4421
Pt 21.3035 16.9825 19.4169
Au 19.2 15.1188 23.4257
Pt 21.21 17.137 23.3687
Au 19.2619 16.9969 25.4164
Pt 21.1338 19.0722 21.4422
Pt 20.0325 21.6184 7.03057
Au 21.8416 23.5552 7.07029
Au 19.4274 18.9996 7.22904
Pt 19.3067 20.9435 9.48886
Au 21.2902 18.9757 9.43356
Pt 21.9218 21.632 8.97517
Au 19.3055 18.8742 11.3793
Pt 19.173 22.8607 15.3683
Au 21.3179 18.8906 13.4122
Pt 21.2299 20.9581 15.3919
Au 19.3021 18.8189 15.3518
Pt 17.2697 24.8021 15.3626
Au 21.2856 18.876 17.3463
Pt 24.9938 21.1618 15.5046
Au 19.2526 18.8395 19.3646
Pt 19.1288 20.9027 21.2689
Au 21.1332 20.9771 19.4241
Pt 23.0788 21.0344 17.3995
Au 19.1773 19.0089 23.5173
Pt 19.6548 23.5087 21.7952
Au 17.7073 23.4756 23.7978
Pt 21.6269 23.5706 19.9338
Au 23.763 23.6588 9.01198
Pt 21.8572 23.6033 10.8943
Au 25.653 21.7305 8.99842
Au 19.2528 20.8874 13.3984
Pt 19.2467 24.806 13.4535
Au 21.8884 25.4707 12.9213
Pt 21.1654 22.8809 13.454
Au 17.2988 26.6604 13.4476
Pt 19.1235 24.7999 17.3108
Au 19.223 20.8751 17.3289
Pt 21.0715 24.761 15.4233
Au 21.6476 25.5149 17.9941
Pt 17.1484 24.723 19.265
Au 23.677 23.699 18.0417
Pt 21.1043 22.91 17.36
Au 19.6875 25.5588 19.9287
Pt 21.3994 7.37434 13.4305
Pt 23.1788 5.69866 17.3056
Pt 23.278 7.4256 15.4023
Pt 21.3756 7.31628 9.57184
Au 21.4608 5.3213 11.5166
Pt 23.4174 9.36502 13.3629
Au 25.1931 7.41025 13.5305
Pt 23.2557 7.3647 11.5889
Au 21.4343 9.36338 15.3553
Pt 23.3003 9.31515 17.4089
Au 25.2413 7.41708 17.3497
Pt 25.1636 9.31826 15.4511
Au 23.3943 7.23352 19.4735
Pt 23.2129 9.32758 21.3381
Pt 25.0447 9.33594 19.3158
Pt 21.455 15.0698 5.70971
Au 23.5078 11.1702 7.51099
Pt 23.5001 13.2338 9.32457
Au 23.4564 9.03819 9.40923
Pt 23.4071 15.2576 7.54699
Au 23.776 11.1018 11.2316
Pt 23.5446 13.1928 13.3487
Au 25.4943 11.2406 13.4287
Pt 25.2665 13.2932 11.3992
Au 23.4828 11.3134 15.4148
Pt 23.4918 13.2052 17.4157
Au 25.5143 11.2519 17.446
Pt 25.3794 13.1647 15.3838
Au 23.3407 11.2875 19.3846
Pt 23.3357 13.2042 21.4593
Au 25.1992 11.2037 21.3524
Pt 25.211 13.1882 19.4921
Au 23.287 11.2088 23.3811
Pt 21.2097 15.1007 25.0223
Pt 23.18 15.2096 23.2521
Pt 21.9834 19.7594 6.97713
Au 18.1307 23.5398 6.89811
Au 23.412 13.2605 5.7536
Pt 23.3609 17.1271 9.4491
Au 25.4283 15.2342 9.41921
Pt 23.8866 19.757 8.91552
Au 23.4947 15.1694 11.3861
Pt 23.4503 16.9946 13.4345
Au 25.6419 15.1331 13.381
Pt 25.3102 17.1609 11.4656
Au 23.5307 15.053 15.379
Pt 23.4558 16.9486 17.3641
Au 25.6036 15.0144 17.4509
Pt 25.3468 17.0338 15.3862
Au 23.4121 15.1336 19.4245
Pt 23.184 17.1132 21.3717
Au 25.2659 15.2248 21.4608
Pt 25.2159 17.1656 19.4166
Au 23.7655 17.8051 23.9166
Pt 19.6648 21.6045 23.6566
Au 21.7972 19.7879 24.008
Pt 23.6371 19.7595 21.9316
Au 23.817 21.7036 7.00697
Pt 21.2566 20.9604 11.4848
Au 23.9701 17.886 6.86605
Au 23.3372 19.0235 11.4676
Pt 23.1704 20.9614 13.4991
Au 25.8652 17.9433 8.8878
Pt 23.8332 21.6675 10.925
Au 23.3116 18.972 15.4014
Pt 24.9864 19.1276 17.4616
Au 27.0821 17.3004 17.4413
Pt 25.1774 19.0999 13.4558
Au 23.1148 18.9995 19.4084
Pt 23.648 21.6775 19.9665
Au 25.6808 17.9769 21.956
Pt 25.5713 19.7948 19.9684
Au 21.8564 21.8525 22.0963
Au 19.9621 25.5938 10.906
Pt 23.6818 23.4779 12.8512
Au 25.991 19.8173 10.9205
Au 25.7553 21.7384 12.925
Pt 23.0755 23.009 15.4236
Au 27.4802 19.8543 18.0543
Pt 26.6983 19.2276 15.5467
Au 25.6669 21.822 18.0928
