561
Atoms. Timestep: 20263
Pt 10.0588 7.99028 19.7258
Au 3.99401 16.8485 16.0311
Pt 7.47829 12.323 19.6896
Au 4.82488 9.38146 14.5846
Pt 9.55674 18.755 10.4792
Pt 6.37701 13.2829 17.3291
Au 4.49275 12.1037 10.2699
Pt 8.23629 13.7045 10.8637
Au 3.77393 15.7485 13.2743
Pt 7.08741 10.615 17.7252
Au 13.741 27.1479 16.536
Pt 7.00149 11.3865 10.9484
Au 6.40175 7.474 13.4085
Pt 9.39625 9.34439 17.5275
Pt 8.13725 14.1228 15.4821
Au 5.67891 20.946 9.43292
Au 7.51537 9.77669 22.918
Pt 10.3134 20.31 12.3955
Au 8.45471 10.2451 6.74577
Pt 8.27592 17.9393 12.6843
Au 9.17714 24.293 20.4309
Pt 7.94479 20.8413 11.2371
Au 5.6694 17.9223 20.8003
Pt 10.8501 15.5663 21.7067
Au 5.68041 22.0839 14.4591
Pt 7.37331 17.528 18.672
Au 9.07118 21.332 6.57937
Au 12.8028 6.65781 23.4105
Pt 14.1684 24.8934 14.704
Au 7.29832 24.0048 15.599
Pt 11.3642 21.4086 14.4507
Au 15.62 19.5989 26.0109
Pt 6.76004 19.7249 13.6512
Au 8.17551 18.7721 6.2105
Au 7.51402 20.9757 22.4747
Pt 14.6046 19.1919 9.43864
Pt 6.38608 15.9145 16.745
Pt 9.60331 11.6531 11.6579
Pt 13.6132 7.24736 18.8956
Pt 12.2944 6.38065 15.3813
Pt 11.5882 10.8549 9.91006
Pt 5.55917 14.1778 14.6706
Au 4.37183 11.4096 17.5091
Pt 7.72159 12.4344 8.36409
Au 4.87151 13.2317 19.6416
Pt 5.92802 17.1035 14.2044
Au 7.39765 15.6057 23.7354
Pt 10.9262 9.41824 7.78433
Au 14.9482 3.63246 13.4921
Pt 10.0237 11.105 19.4057
Au 7.89526 7.22122 21.0853
Pt 18.0599 6.61676 19.3547
Au 5.39681 10.4441 19.8935
Pt 7.91702 9.67852 20.1588
Au 16.738 17.0379 25.8973
Pt 17.985 12.0309 20.4379
Pt 21.6304 17.3378 22.6465
Pt 8.08502 19.7789 8.64873
Au 11.3518 17.4558 3.50607
Au 14.8183 4.84659 10.853
Pt 8.97787 12.6609 17.4947
Au 9.5668 6.31351 11.5944
Pt 5.84161 16.4472 11.485
Au 5.07922 20.9559 12.0224
Pt 10.5044 19.7277 19.4649
Au 13.9425 14.4354 4.32317
Pt 9.02207 7.90043 13.7562
Au 9.01566 24.2684 10.3682
Pt 9.26269 19.4365 14.6941
Au 10.3315 6.4454 22.1497
Pt 7.36226 8.90035 15.6624
Au 4.90811 18.6277 18.0936
Pt 11.7781 10.9648 21.5021
Au 10.2689 5.30098 14.0364
Pt 9.95874 9.09495 22.0232
Au 5.68762 15.1024 21.5453
Pt 22.12 14.7911 21.8283
Au 20.2037 13.2727 25.287
Pt 17.3845 7.8634 22.1115
Pt 8.27123 19.0362 20.7355
Au 6.26019 16.9246 5.65501
Au 13.5027 23.5308 7.4465
Pt 6.87952 18.7107 16.2681
Au 16.1286 24.2611 8.21162
Pt 10.8204 19.7891 7.99446
Au 17.0462 16.9703 14.4603
Pt 10.3518 12.083 7.86629
Au 17.3173 14.2826 13.5995
Pt 13.8413 22.317 13.7435
Au 10.5968 23.1428 7.80953
Pt 10.5468 10.2938 13.5949
Au 18.8623 23.5934 8.42333
Pt 9.0245 16.1507 6.08043
Au 7.58059 22.8935 18.2098
Pt 7.75643 12.6391 13.367
Au 9.07769 5.67775 18.8175
Pt 5.71917 13.8951 11.9661
Au 6.20433 10.2126 8.72742
Pt 14.2509 6.04624 21.1674
Au 13.8955 17.4616 26.1342
Pt 8.25994 14.0667 21.7475
Au 7.29647 14.7223 4.27358
Au 20.3944 24.9466 10.7503
Pt 15.706 17.2269 6.99366
Au 5.09308 12.7648 7.71437
Pt 9.99373 17.0306 19.5824
Au 5.63385 18.9356 7.57988
Pt 7.67094 15.3237 13.1138
Au 7.82994 22.4802 8.80181
Pt 10.5141 20.7522 16.9048
Au 4.53527 19.4745 15.1489
Pt 6.61895 18.7321 10.691
Au 11.0139 17.6209 12.7838
Pt 18.2761 23.9196 12.6204
Au 16.9787 5.08295 21.2324
Pt 12.6246 9.42185 23.615
Au 6.14349 20.5858 19.9482
Pt 16.825 16.6641 21.7401
Au 3.91821 14.2315 16.9471
Au 9.08587 19.8364 24.3878
Pt 18.4505 18.635 21.0585
Au 11.5577 24.8794 21.6491
Au 11.6216 20.884 24.368
Pt 9.77949 23.1446 15.862
Au 9.60673 25.8078 15.0489
Pt 12.3778 17.0535 23.4113
Au 14.1871 21.7506 25.2277
Pt 8.353 21.9968 13.5549
Au 7.15253 18.2965 23.1565
Pt 13.7232 19.1771 24.0899
Au 9.75023 22.6544 22.8995
Au 5.5697 21.1394 17.1964
Pt 9.84797 17.747 22.7634
Pt 16.8968 7.05126 10.4791
Pt 11.5473 7.66733 13.1874
Pt 21.8966 12.0414 8.91206
Pt 10.9584 8.69975 15.6059
Pt 15.8636 6.06931 12.9777
Pt 18.4313 9.24168 19.7388
Pt 15.5751 5.32961 18.845
Pt 11.28 6.97043 17.7051
Pt 14.9927 14.9422 25.6852
Pt 13.9259 15.173 7.21413
Au 13.2073 4.79022 17.6441
Au 5.15023 8.76754 17.3209
Pt 5.22251 11.591 13.0089
Au 9.5545 7.5552 9.09381
Pt 12.8284 9.59643 11.903
Au 6.40204 6.55089 16.0711
Pt 10.1486 9.00099 11.3343
Au 4.75528 15.9951 18.952
Pt 12.9263 12.8287 8.54811
Au 19.3442 3.56556 16.1952
Pt 9.9353 13.8571 19.7809
Au 11.7444 5.52689 20.0079
Pt 18.589 6.73331 12.7029
Au 26.5633 10.1568 19.1929
Pt 8.04369 16.5217 21.2345
Au 3.74375 15.0372 10.3928
Pt 14.7195 8.43247 22.379
Au 6.66887 23.0975 11.4327
Pt 13.1336 5.62032 12.8953
Au 24.708 13.4935 21.9287
Pt 13.7745 15.8425 21.4429
Pt 9.7053 17.4053 8.26463
Au 23.7056 5.74487 13.5645
Au 4.33699 17.7707 9.68386
Pt 7.5565 9.98719 13.1544
Au 14.728 21.5181 5.82281
Pt 7.07977 16.953 8.41775
Au 3.16651 13.24 12.5036
Pt 14.1143 11.6368 10.5724
Au 13.449 17.3393 11.3325
Pt 14.069 9.90278 20.0425
Au 10.6871 15.825 15.0212
Pt 8.81809 11.0242 15.402
Au 11.2871 14.0504 17.1055
Pt 7.47621 7.79712 18.2959
Au 17.8849 11.2758 13.6839
Pt 10.0896 10.808 23.9915
Au 12.7952 3.8104 15.0671
Pt 16.4238 10.0899 18.4031
Au 14.5931 6.54814 8.7453
Pt 7.25537 14.8927 19.2701
Au 27.5572 14.9246 15.9696
Pt 12.5597 11.9766 24.0878
Pt 8.95521 14.7563 8.5267
Au 9.72391 15.13 3.30306
Au 18.2842 14.6928 4.18387
Pt 10.1671 21.6147 9.95839
Au 11.2966 11.3233 16.5924
Pt 12.9306 10.7154 6.9155
Au 13.1335 13.1678 15.2095
Pt 8.37454 16.3552 10.6109
Au 9.67123 18.1309 17.0975
Pt 6.89713 14.6228 6.87441
Au 14.182 8.03896 13.9342
Pt 9.09932 15.5303 17.5615
Au 13.0561 10.4777 14.646
Pt 18.9342 18.7047 7.80157
Au 12.2131 12.3982 12.3952
Pt 16.0424 15.0051 19.828
Au 19.2846 8.90761 14.4098
Pt 15.0042 16.5841 23.7257
Au 21.4283 10.9081 24.0984
Pt 12.7988 13.4328 21.4299
Au 18.8524 5.99766 23.1346
Pt 16.5418 18.7479 23.5571
Pt 11.626 24.0932 14.3353
Au 14.3596 26.8792 12.8701
Au 21.4501 25.2639 15.4929
Pt 6.23381 14.5339 9.45816
Au 22.0229 7.68969 9.39305
Pt 10.3463 23.0649 12.3179
Au 4.29225 18.4285 12.4876
Pt 12.8829 23.9761 19.2163
Au 10.609 25.7769 12.2527
Pt 12.8808 20.3398 21.8065
Au 16.0107 16.2332 4.31828
Pt 12.6277 22.7899 16.4807
Au 20.1802 21.0764 7.16754
Pt 12.7233 21.4287 8.81255
Au 12.2576 18.3244 18.0035
Pt 15.2909 21.0036 22.94
Au 11.8164 18.6059 15.2625
Pt 7.88258 21.2747 15.9283
Au 10.5146 8.11255 24.4446
Pt 9.03164 11.6006 21.7274
Au 13.2202 12.9893 26.5155
Pt 17.2651 22.1065 19.0114
Au 17.0632 21.7621 25.062
Au 19.9982 21.3333 24.6704
Pt 14.7907 22.2196 18.2638
Au 11.9183 21.4591 6.08153
Pt 8.10865 20.1173 18.2128
Au 19.5012 5.97342 10.2384
Pt 19.761 16.2129 21.0284
Au 18.1694 26.0633 19.2635
Pt 15.429 22.5273 15.7579
Au 11.735 24.2924 9.90716
Pt 11.3781 22.3702 20.8512
Au 15.1215 15.071 15.127
Pt 15.3643 21.631 8.54262
Au 18.6303 26.2596 16.2125
Pt 16.4476 20.2218 20.6317
Au 16.0482 27.07 15.0597
Pt 14.2455 19.5699 19.3553
Au 12.9052 22.9787 23.1284
Au 8.20144 24.6416 13.0597
Pt 10.4598 23.0638 18.3978
Pt 18.2068 16.9629 5.83603
Pt 16.6975 8.63262 12.8315
Pt 6.24483 11.5269 15.3831
Pt 17.3788 5.41822 16.9154
Pt 15.1914 10.9551 8.24122
Pt 17.3114 12.3376 23.1684
Pt 18.5194 8.03867 17.1277
Pt 20.0976 5.51539 17.7836
Pt 19.2952 12.0357 18.2746
Pt 19.9161 12.5458 22.6229
Pt 9.08669 6.82211 16.2028
Pt 20.3602 9.91331 9.3804
Au 15.6143 18.949 4.78977
Au 8.86457 12.4661 3.7319
Pt 10.8208 13.499 10.0889
Au 5.18499 9.39592 11.5907
Pt 17.7618 10.7418 8.95254
Au 6.95176 12.2208 5.67219
Pt 22.3584 10.1492 10.8762
Au 11.9801 6.97609 7.95087
Pt 15.8546 9.61843 10.4632
Au 12.9355 16.1571 16.4841
Pt 20.5142 10.6166 20.4316
Au 26.4871 12.7537 19.9114
Pt 17.023 7.25977 14.9993
Au 15.5172 3.51279 16.478
Pt 15.8932 7.84482 20.0294
Au 23.4718 18.1327 24.4898
Pt 19.9867 7.89059 21.5371
Au 13.9415 8.27586 6.60668
Pt 18.2136 10.6268 16.3544
Au 17.4244 4.27216 14.3781
Pt 15.158 12.623 24.6038
Pt 11.3707 15.1433 7.83613
Au 12.9395 19.5654 4.35905
Au 10.425 13.0204 14.4386
Pt 11.0713 16.3925 10.2739
Au 11.4991 13.1422 3.51603
Pt 13.4188 9.06017 9.18746
Au 16.9852 12.3096 11.1965
Pt 17.1568 18.4867 9.65725
Au 19.682 13.3844 12.8146
Pt 22.7527 10.0361 16.7254
Au 22.1685 9.33552 14.1538
Pt 24.8514 11.4699 17.5626
Au 12.4028 12.3836 19.0614
Pt 14.8339 5.82147 15.5264
Au 12.8169 15.2256 13.3017
Pt 12.3221 8.15607 21.1326
Au 24.2699 10.9021 22.7984
Pt 15.4027 14.0325 22.3655
Au 20.0861 8.46088 24.136
Pt 16.2961 9.99448 23.9691
Au 12.0976 15.5112 26.1442
Pt 14.3963 11.3082 22.4449
Pt 12.7943 17.3563 8.42406
Au 8.5646 17.4862 3.85761
Au 3.59951 12.2545 15.0318
Pt 9.40371 13.5835 6.00528
Au 22.0171 11.6231 6.21057
Pt 22.4266 16.6788 13.4798
Au 21.3903 22.7678 9.02906
Pt 15.0372 21.1522 11.3213
Au 15.8378 12.4045 15.2519
Pt 11.5126 15.4644 5.22932
Au 10.2326 14.846 12.3861
Pt 20.5497 13.5498 20.1579
Au 15.4551 13.6595 9.14746
Pt 22.7888 20.0925 16.2851
Au 15.8756 9.66173 15.5332
Pt 14.232 16.8196 19.0716
Au 14.8047 13.4371 12.6599
Pt 12.1136 17.9919 20.8711
Au 6.24357 12.1822 22.0634
Pt 8.34546 16.8576 15.1716
Au 18.1136 3.8868 18.9204
Pt 10.6151 13.3037 22.9099
Pt 19.3103 14.2718 6.58142
Au 10.1875 19.741 4.58927
Au 22.8997 17.1257 6.34647
Pt 19.7118 16.1946 13.4538
Au 25.8189 14.0817 9.96383
Pt 20.4554 14.4487 9.06116
Au 18.2996 9.57204 6.45123
Pt 17.9244 20.3273 11.4823
Au 12.0137 9.50911 18.5284
Pt 11.236 17.9226 6.21343
Au 17.0623 26.4485 12.6044
Pt 12.0667 19.4019 10.393
Au 13.2524 14.6731 10.5394
Pt 13.0313 24.565 12.2257
Au 14.2578 14.148 17.8079
Pt 8.85172 21.6701 20.2696
Au 11.1688 18.2601 25.343
Pt 18.1291 17.5778 11.9233
Au 8.14619 12.7861 24.1418
Pt 19.53 22.4703 17.8883
Au 14.2974 10.4696 25.8344
Pt 15.5916 24.1071 12.4863
Pt 16.7238 21.8512 13.3557
Au 15.084 25.8813 10.4485
Au 19.2446 12.1328 4.90486
Pt 16.9064 22.8515 10.498
Au 24.3187 12.6428 7.61764
Pt 24.9332 15.5788 15.6956
Au 17.1482 25.3264 21.767
Pt 12.4791 21.9363 11.4493
Au 19.354 16.0577 16.144
Pt 16.3748 19.6449 7.28242
Au 22.1885 14.3396 6.84874
Pt 11.7979 25.2125 16.7986
Au 22.7932 20.0997 6.59929
Pt 20.4261 16.5067 7.40745
Au 13.139 19.7594 13.0143
Pt 14.7029 18.3478 21.6433
Au 15.1244 12.4581 20.0391
Pt 16.2172 26.4159 17.6093
Au 18.3488 19.3016 25.535
Pt 19.4873 21.5385 13.442
Au 24.2415 16.0445 22.9616
Pt 10.3427 20.1508 22.0628
Pt 8.92626 10.2816 9.40566
Pt 20.3925 9.84311 17.7572
Pt 18.4266 9.69255 11.2741
Pt 18.9413 17.1509 18.717
Pt 19.3423 6.09533 15.2692
Pt 23.23 13.4693 16.6031
Pt 13.5455 8.42935 16.5319
Pt 14.7312 12.7937 6.42942
Au 25.375 16.9708 10.1819
Pt 23.6221 7.52687 15.5134
Au 21.8933 5.05437 15.659
Pt 15.8862 7.5952 17.4225
Au 4.62774 15.8637 7.7479
Pt 12.1047 13.1476 6.09144
Au 24.7083 8.76819 20.8036
Pt 20.4925 8.19661 11.5643
Au 24.8512 8.50658 17.8253
Pt 11.9925 7.1282 10.5892
Au 19.9991 5.28238 20.6231
Pt 24.2935 10.4207 12.5991
Au 10.5783 4.57042 16.6892
Pt 23.2049 18.8196 18.7206
Au 27.9501 14.6475 18.676
Pt 20.5571 7.63946 19.0593
Au 26.5784 10.6398 11.1553
Pt 21.9098 22.8208 16.8065
Pt 18.5736 14.6034 18.8394
Pt 19.7442 11.791 7.5157
Au 10.6849 10.9554 5.24691
Au 20.9149 9.15402 6.98117
Pt 20.2409 20.0629 9.93804
Au 15.6479 10.1678 5.5999
Pt 19.7389 12.2378 10.4372
Au 18.2225 19.8037 5.36995
Pt 14.4356 7.55268 11.2844
Au 20.7 15.8919 4.84763
Pt 22.1274 11.8875 18.5315
Au 15.1647 10.7781 12.9471
Pt 20.4494 19.6485 22.5567
Au 14.1826 11.178 17.3088
Pt 18.8204 10.1276 22.4729
Au 15.7515 18.744 12.1644
Pt 18.0778 14.327 21.5353
Au 15.0608 17.9059 16.716
Pt 16.2031 20.164 17.547
Au 22.8473 6.48754 17.9975
Pt 16.408 10.236 21.2731
Au 17.5444 7.85301 24.819
Pt 23.3859 14.0188 19.4985
Pt 17.2359 12.08 6.68205
Au 24.7615 8.86863 10.248
Au 17.5422 4.48903 11.5688
Pt 21.7936 21.1699 11.7746
Au 24.734 19.6718 11.2203
Pt 16.6123 14.7204 6.5259
Au 17.3337 22.1872 6.58262
Pt 21.2106 14.1525 14.7191
Au 20.5275 10.8591 12.7551
Pt 16.2523 8.55847 8.05039
Au 15.6421 19.8207 14.7476
Pt 15.8888 24.4057 19.5268
Au 25.52 12.8362 12.4373
Pt 21.3148 20.6776 18.4815
Au 16.7072 12.8112 17.8266
Pt 18.7523 19.8469 18.5103
Au 25.5329 18.2573 19.8212
Pt 18.102 20.741 22.833
Au 14.6567 7.96031 25.0506
Pt 18.8786 17.5185 23.4711
Au 10.0124 15.5546 24.4055
Pt 19.4643 23.5499 15.3585
Pt 24.7379 9.99098 15.1938
Au 22.4954 6.85356 20.7297
Au 13.5403 11.5054 4.3436
Pt 20.0038 17.265 10.0884
Au 17.7729 25.3888 10.2211
Pt 23.8247 17.9027 15.5532
Au 18.3044 15.0272 10.9823
Pt 17.9642 16.1738 8.44598
Au 15.7613 15.9329 12.1087
Pt 18.0243 18.4849 16.4645
Au 14.1489 17.4561 14.1293
Pt 12.4333 21.2547 18.7774
Au 16.7478 15.7909 17.2338
Pt 17.7959 21.5361 15.8952
Au 21.2973 15.2478 11.4838
Pt 20.9884 18.4892 20.1736
Au 8.99566 25.2094 17.6462
Pt 17.4478 24.0609 17.3268
Au 13.92 26.4611 19.2128
Pt 13.0413 14.5416 23.8686
Au 11.084 25.975 19.2374
Pt 14.5263 24.6121 17.1821
Au 23.0598 20.7294 9.38504
Pt 13.5955 17.1023 5.37982
Au 25.3683 19.9648 14.4706
Au 12.107 26.773 14.3773
Pt 22.5543 16.4152 9.10719
Au 23.3708 24.0615 14.0843
Pt 22.4829 12.7229 11.9079
Au 19.5768 26.0072 13.6299
Pt 14.288 22.2949 20.8117
Au 18.5806 13.3941 15.8233
Pt 19.5072 21.2225 20.5564
Au 15.6318 23.6774 23.6797
Pt 20.4014 18.9321 12.3589
Au 24.2707 21.8459 12.8315
Pt 16.9273 24.541 14.8204
Au 25.0044 17.5913 12.945
Pt 22.9989 11.885 14.4298
Pt 20.9154 23.7144 13.0537
Pt 22.8797 19.4171 13.4754
Pt 23.1628 14.0463 9.63701
Au 20.6654 18.62 5.58242
Pt 20.7429 11.6258 15.7425
Au 26.9618 9.82626 16.507
Pt 21.2767 6.8697 13.7307
Au 15.3461 16.395 9.46554
Pt 22.3504 20.714 20.8688
Au 22.7631 13.3199 23.9951
Pt 24.2426 11.3055 20.0937
Au 26.6448 16.848 17.7822
Pt 24.0093 16.3499 18.0458
Pt 19.0099 23.7845 20.3111
Pt 23.15 7.91984 12.1025
Au 16.3134 12.8291 4.26267
Pt 21.5717 18.6969 8.31783
Au 24.4165 22.1752 15.7916
Pt 24.0044 15.3816 11.6516
Au 26.629 17.591 15.1763
Pt 20.8384 13.9823 17.4058
Au 22.5558 20.5815 23.7249
Pt 25.5013 14.0956 17.7959
Au 23.9563 18.9399 21.964
Pt 22.146 16.0589 16.2092
Au 15.7993 6.08785 23.461
Pt 21.1373 7.78143 16.3091
Au 23.8859 21.5359 18.5197
Pt 12.0984 15.3485 19.3407
Au 18.7204 10.8506 25.0651
Pt 25.4804 12.7386 15.2863
Au 22.0395 15.816 24.9012
Pt 22.2878 12.1171 21.5523
Pt 17.3229 15.1502 23.9956
Pt 18.7067 8.13156 8.89986
Au 27.5376 12.353 17.1589
Au 23.3131 9.91663 8.155
Pt 22.5883 18.1196 11.0267
Au 26.8942 10.5007 13.8006
Pt 17.9761 13.4885 8.76413
Au 17.4829 13.3011 25.8495
Pt 22.6303 9.25055 19.2742
Au 18.579 23.4675 23.3306
Pt 16.8434 22.6997 21.4993
Au 21.8957 5.63864 11.416
Pt 24.366 11.7036 10.1426
Au 19.3193 16.0265 25.7615
Pt 21.4342 15.9879 18.9179
Au 10.5928 13.0688 25.649
Pt 16.5414 17.9208 19.2515
Au 22.8267 23.5733 11.2263
Pt 23.2646 16.8022 20.5616
Au 22.2638 9.21525 22.131
Pt 19.9874 15.0724 23.3516
Au 20.8943 18.5023 25.083
Pt 13.5625 20.3773 16.4044
Au 7.54484 8.32718 10.893
Pt 13.5684 19.3935 6.99796
Au 24.7005 15.4927 7.82857
Au 24.2837 18.4905 8.34126
Pt 20.9365 18.2381 17.384
Au 25.4489 8.06279 13.4146
Pt 14.2724 23.4193 10.1189
Au 27.8165 12.9503 14.1888
Pt 20.1448 20.5494 15.9823
Au 26.3968 15.2376 13.3827
Pt 23.6844 14.3195 13.9027
Au 20.9615 22.5652 22.3551
Pt 21.9707 21.7553 14.4127
Au 21.6945 23.145 19.6624
Pt 19.5291 22.4253 10.8668
Au 25.409 19.4199 17.222
Au 14.3118 24.9771 21.6112
Pt 18.0052 21.0188 8.92386
Au 25.7321 15.5091 20.258
Au 20.3401 24.9926 17.9929
Pt 18.2991 19.3491 14.0148
Au 20.0539 4.45739 13.203
Pt 20.7873 18.2401 14.8531
Au 11.6236 10.353 26.0664
