561
Atoms. Timestep: 20103
Pt 7.62512 7.19163 15.1484
Au 5.75166 7.038 13.176
Pt 7.51119 10.9387 11.1064
Au 5.39087 8.99276 15.0827
Pt 5.53581 10.9604 13.0617
Pt 5.47135 11.0056 17.0293
Au 5.6219 13.0117 7.21568
Pt 5.62466 14.9497 9.05055
Au 3.55939 12.937 12.949
Pt 3.9279 14.8962 11.0723
Au 3.55169 14.9482 18.9238
Pt 5.43752 12.9622 15.0324
Au 5.69155 7.08674 17.0364
Pt 5.36187 14.9272 17.0044
Pt 7.33481 11.0718 19.1379
Au 7.60333 12.9794 5.30521
Au 3.46926 16.8588 12.9266
Pt 7.00278 17.5346 6.68804
Au 3.38136 14.8985 14.9761
Pt 5.47349 16.9189 11.0211
Au 3.42978 16.9334 16.9551
Pt 5.32602 16.879 15.0203
Au 7.17943 18.8701 22.9616
Pt 5.28574 16.9423 18.9874
Au 5.2545 14.9772 21.13
Pt 7.32541 15.0693 22.9613
Au 4.88056 17.5231 8.40973
Au 4.77494 21.3581 12.3475
Pt 4.97029 19.405 10.4203
Au 5.2319 20.9823 18.7982
Pt 5.33344 18.9295 16.9683
Au 7.04206 21.0286 20.9754
Pt 7.3027 22.8046 18.8401
Au 3.54796 18.9038 14.9147
Au 5.36925 22.8054 16.8133
Pt 5.45803 20.8441 14.9443
Pt 9.588 7.22488 13.2048
Pt 7.73663 7.1592 11.3167
Pt 7.44413 9.12037 17.1038
Pt 9.65052 5.3771 15.1931
Pt 9.46949 7.29594 17.1898
Pt 5.5427 12.8636 11.0458
Au 7.48551 8.89274 9.13324
Pt 9.68284 9.09877 7.3105
Au 5.58757 8.97086 11.2002
Pt 7.51682 9.1038 13.1749
Au 7.75429 5.19094 13.2961
Pt 9.4964 9.0798 11.145
Au 7.75452 5.21584 17.0869
Pt 7.36736 11.0201 15.1162
Au 9.43191 9.18786 15.1641
Pt 9.41184 11.0502 13.1212
Au 7.38223 7.09999 19.1744
Pt 9.57611 5.50548 19.132
Au 11.5248 3.66751 19.1983
Pt 9.28673 9.10263 19.2314
Pt 11.2843 9.23856 21.1419
Pt 9.4932 12.9558 7.17275
Au 11.6346 9.07838 5.32683
Au 5.56447 10.9654 9.15477
Pt 7.50194 12.9369 9.10193
Au 9.42388 10.9886 9.12951
Pt 11.4583 14.9233 7.10892
Au 3.59692 11.0472 14.9935
Pt 5.47463 14.8998 13.1153
Au 7.38951 12.9161 13.0821
Pt 9.36345 12.9722 11.113
Au 3.49962 12.9437 16.9878
Pt 7.21285 12.9995 17.1474
Au 9.28439 11.1333 17.2103
Pt 9.24866 13.0004 15.1644
Au 5.18425 12.7528 19.2209
Pt 7.21136 13.0498 21.1224
Au 9.27573 11.1544 21.091
Pt 9.16826 13.1026 19.1648
Au 5.46897 9.13734 18.9612
Pt 7.47495 11.1886 22.953
Au 9.24773 11.1791 25.0141
Pt 11.2694 11.2107 23.1136
Pt 7.56914 14.9691 7.1274
Au 7.48942 10.8964 7.10706
Au 9.42129 14.9201 9.09112
Pt 7.46128 16.8866 9.145
Au 11.403 16.9005 9.08409
Pt 9.49632 16.8959 7.13139
Au 7.35892 14.9056 11.0871
Pt 7.29771 16.8839 13.061
Au 9.33613 14.9752 13.122
Pt 9.33583 16.8874 11.0759
Au 7.33055 14.9642 15.1152
Pt 7.16522 16.9547 17.0833
Au 9.19878 15.0176 17.1809
Pt 9.22897 16.9327 15.1411
Au 7.07928 14.9427 19.1213
Pt 7.12969 16.9595 21.0357
Au 9.15981 15.0802 21.0849
Pt 9.06253 16.9909 19.1267
Au 7.26577 13.1024 24.755
Pt 9.26412 13.1573 23.0338
Au 9.13253 15.1145 25.0798
Pt 9.14097 17.0044 23.0683
Au 8.82094 17.5595 4.65976
Au 8.6397 19.7159 6.37371
Pt 6.82975 19.4909 8.47606
Au 9.37158 18.9106 9.03217
Pt 8.77767 21.4983 8.50039
Au 7.4267 18.9089 11.0611
Pt 5.42723 18.8209 12.997
Au 9.31016 18.8275 13.0902
Pt 9.27129 20.9435 11.0461
Au 7.24937 18.8551 15.0336
Pt 7.2731 20.8599 16.9863
Au 9.16046 18.8864 17.1347
Pt 11.1141 22.8571 19.0014
Au 7.02284 18.9709 19.1423
Pt 9.13834 22.8147 20.8683
Au 9.05828 19.0084 21.0676
Pt 9.13359 20.9043 19.0192
Au 8.95541 21.0669 23.0501
Au 9.15301 18.9831 24.9293
Pt 11.0442 22.8272 22.869
Au 6.6228 21.6005 10.2704
Au 6.69653 23.3822 12.4106
Pt 7.3543 20.8302 12.992
Au 11.2279 20.8891 13.0949
Pt 9.28496 22.8803 13.0133
Au 9.23396 20.8818 15.0449
Pt 9.23038 22.833 16.9914
Au 9.17013 24.8422 18.969
Pt 7.35814 22.7928 14.9757
Au 7.32073 24.7166 16.9132
Au 12.8012 24.8226 22.9411
Pt 11.0392 24.6218 20.923
Pt 11.5322 7.21039 11.2427
Pt 15.4966 9.23253 9.29479
Pt 11.5763 5.37631 13.2451
Pt 13.6101 5.42882 11.3067
Pt 11.4258 5.40119 17.1939
Pt 13.4665 5.39906 15.2269
Pt 11.4766 5.55602 21.1113
Pt 13.4638 5.47705 19.3122
Pt 11.4402 7.40657 23.016
Pt 11.5312 11.0396 7.27643
Au 11.5861 7.05668 7.28148
Au 9.55587 7.00141 9.2162
Pt 11.4957 9.07483 9.23848
Au 11.7243 5.19345 9.40148
Pt 13.5004 11.0333 5.43838
Au 9.6794 5.15931 11.3395
Pt 11.4204 9.18137 13.1697
Au 13.4798 7.28606 13.2533
Pt 13.4392 9.20103 11.2342
Au 11.4879 7.27796 15.2204
Pt 11.3431 9.22802 17.2255
Au 13.4144 7.27079 17.2468
Pt 13.3805 9.24028 15.2419
Au 13.501 3.71336 17.2818
Pt 11.429 7.33874 19.1845
Au 9.28618 7.16279 21.2937
Pt 13.317 9.29779 19.2304
Au 7.23826 9.16114 21.1544
Pt 9.38809 9.28241 23.0191
Au 15.2192 9.3189 25.2208
Pt 13.2853 9.30579 23.221
Pt 11.4889 12.9167 5.33697
Au 15.6035 9.1719 5.30603
Au 9.61162 10.9882 5.27431
Pt 11.4013 13.0048 9.1223
Au 13.4502 11.1399 9.2189
Pt 13.4495 13.0592 7.14713
Au 11.4031 11.1075 11.1678
Pt 11.3132 13.0541 13.1704
Au 13.3794 11.1748 13.2203
Pt 13.3648 13.0792 11.1859
Au 11.3516 11.1803 15.1908
Pt 11.2326 13.125 17.1899
Au 13.3119 11.2307 17.2212
Pt 13.2901 13.1331 15.2092
Au 11.2753 11.2032 19.1784
Pt 11.1996 13.1709 21.1932
Au 13.2321 11.2612 21.2402
Pt 13.2213 13.1927 19.2386
Au 11.2514 9.24147 25.0114
Pt 11.0832 13.1571 24.9874
Au 13.1101 11.2907 25.2883
Pt 13.1633 13.2195 23.2763
Pt 11.4265 16.9397 5.25645
Au 13.3481 14.8905 4.97288
Au 9.55921 14.8993 5.08659
Pt 11.3333 18.9122 7.15772
Au 13.4016 14.975 9.11429
Pt 13.4087 16.861 7.03152
Au 11.3605 14.9591 11.1474
Pt 11.3093 16.9055 13.1646
Au 13.2995 15.0273 13.202
Pt 13.3256 16.9158 11.1585
Au 11.2454 15.0152 15.1858
Pt 11.2073 16.9846 17.1701
Au 13.2265 15.0891 17.2103
Pt 13.244 16.9979 15.2091
Au 11.1979 15.0982 19.1735
Pt 11.1206 17.0397 21.1536
Au 13.1772 15.1561 21.2436
Pt 13.1887 17.0607 19.1827
Au 11.1801 15.1516 23.2092
Pt 11.1171 17.125 25.0193
Au 13.0751 15.0685 25.4197
Pt 13.131 17.0887 23.27
Pt 10.7723 21.4573 6.61831
Au 12.7727 21.4922 4.69729
Au 10.7751 19.5549 4.57246
Pt 11.3503 20.8579 9.16045
Au 13.3529 18.8411 9.10166
Pt 13.3199 20.8928 7.28405
Au 11.2976 18.8611 11.1198
Pt 11.1691 22.8636 15.0575
Au 13.2642 18.9124 13.1874
Pt 15.2304 22.9115 11.1824
Au 11.242 18.8907 15.1655
Pt 11.1511 20.924 17.1087
Au 13.1955 19.0221 17.1845
Pt 13.1612 20.9779 15.1613
Au 11.1401 18.9504 19.1227
Pt 11.0628 20.9609 21.0271
Au 13.135 19.033 21.1166
Pt 13.1115 21.0349 19.128
Au 11.0738 19.0121 23.0127
Pt 11.0922 20.9301 24.7487
Au 13.0429 17.3873 26.8601
Pt 13.0554 19.2015 24.9417
Au 12.6678 23.476 6.63332
Au 8.65492 23.5884 10.3778
Pt 11.2751 22.7981 11.1123
Au 10.7932 25.3115 10.3918
Pt 10.74 23.3568 8.55009
Au 13.2852 20.8942 11.1362
Pt 11.2143 24.6958 13.021
Au 13.2072 22.8837 13.1244
Pt 13.2532 24.7324 11.1928
Au 9.23861 24.8627 14.9345
Pt 11.0656 24.734 16.9839
Au 13.0829 22.9639 17.1108
Pt 13.0365 24.7952 15.005
Au 12.8143 25.1521 19.0134
Pt 13.0916 22.9786 20.9817
Au 14.8856 25.1132 21.1545
Pt 14.9263 24.8766 16.8248
Au 12.8758 22.8969 24.9269
Au 15.0211 19.3253 26.9035
Pt 13.0768 21.079 22.925
Pt 13.5398 9.1322 7.34424
Pt 15.6043 5.53175 9.45363
Pt 15.6171 7.32579 7.45997
Pt 15.5122 5.4616 13.2939
Pt 17.4994 5.52412 11.4126
Pt 15.489 5.45818 17.3268
Pt 17.4858 5.51553 15.3426
Pt 15.3658 5.57358 21.1871
Pt 17.3887 5.57832 19.3305
Pt 15.2783 7.44121 23.1497
Pt 19.1802 7.54565 23.1609
Pt 17.525 11.1777 5.49046
Au 13.7052 7.20526 5.53414
Au 13.772 5.31964 7.52854
Pt 13.5423 7.28549 9.33451
Au 19.3919 5.42758 9.50799
Pt 17.5012 9.23039 7.36493
Au 15.5055 7.35383 11.322
Pt 15.4272 9.26765 13.2709
Au 17.4552 7.37516 13.3401
Pt 17.4754 9.28344 11.2946
Au 15.4328 7.30544 15.2956
Pt 15.3418 9.30488 17.2614
Au 17.4047 7.39457 17.3142
Pt 17.3928 9.33131 15.3027
Au 15.3695 7.41206 19.2484
Pt 13.3637 7.45457 21.1658
Au 17.2771 5.5075 23.0778
Pt 17.2697 7.50962 21.2403
Au 13.3973 5.5144 23.0396
Pt 15.2668 9.37483 21.2794
Au 17.2348 7.42623 25.0346
Pt 17.2267 9.39997 23.2099
Pt 15.4358 12.9462 5.30424
Au 17.4624 14.8885 5.00572
Au 15.4847 11.1088 7.24777
Pt 15.4034 13.1178 9.12725
Au 17.4469 11.2243 9.28109
Pt 17.4244 13.1403 7.21426
Au 15.4186 11.2154 11.2523
Pt 15.3357 13.1551 13.2406
Au 17.382 11.2721 13.2793
Pt 17.3707 13.1917 11.2362
Au 15.3445 11.2331 15.2533
Pt 15.2552 13.2114 17.2423
Au 17.3065 11.3404 17.276
Pt 17.2968 13.2319 15.2736
Au 15.2583 11.3241 19.263
Pt 15.1714 13.2507 21.3341
Au 17.2286 11.39 21.3178
Pt 17.2372 13.2735 19.2913
Au 15.1628 11.2983 23.3136
Pt 15.1379 13.1941 25.1784
Au 17.0948 15.1209 25.5331
Pt 17.1516 13.3208 23.3393
Pt 13.319 18.9206 5.34622
Au 15.3828 16.9348 4.92503
Au 15.4072 15.0227 6.97948
Pt 15.3271 16.9245 9.07159
Au 17.3223 15.1001 9.17124
Pt 17.3276 16.9637 6.99434
Au 15.323 15.0429 11.1924
Pt 15.2519 16.9967 13.232
Au 17.2835 15.1215 13.2648
Pt 17.2633 16.9776 11.2342
Au 15.2545 15.1082 15.2442
Pt 15.1943 17.0903 17.2355
Au 17.22 15.1704 17.2749
Pt 17.2045 17.0718 15.2766
Au 15.1895 15.1458 19.2514
Pt 15.1341 17.1036 21.2521
Au 17.1345 15.1965 21.285
Pt 17.1452 17.1238 19.2524
Au 15.1172 15.1777 23.3778
Pt 15.0892 17.1829 25.1785
Au 17.0429 17.4267 27.0611
Pt 17.0665 17.1095 23.2947
Pt 15.3203 21.0738 5.53396
Au 15.3018 19.3101 3.67122
Au 15.351 18.8707 7.08941
Pt 17.2161 22.9331 9.3258
Au 17.2509 18.8887 9.21283
Pt 17.2909 20.9815 7.37399
Au 15.2789 18.886 11.198
Pt 15.2206 20.9619 13.1596
Au 17.1854 18.9659 13.2565
Pt 17.2293 20.9672 11.2185
Au 15.1876 19.0414 15.2246
Pt 15.1387 21.1003 17.208
Au 17.1277 19.1071 17.2451
Pt 17.1536 21.0382 15.2307
Au 15.1541 19.1228 19.2042
Pt 15.1316 21.1949 21.1609
Au 17.0719 19.1329 21.1915
Pt 17.0688 21.2413 19.2106
Au 15.0717 19.1074 23.1198
Pt 17.0226 19.1835 24.9939
Au 18.9899 19.3366 26.9464
Pt 17.0334 21.1658 23.1737
Pt 15.2736 22.9321 7.37714
Au 17.3435 22.8699 5.4148
Au 15.2809 20.9267 9.20048
Pt 13.2817 22.932 9.22722
Au 17.2312 24.7961 7.3729
Pt 19.1998 22.9202 7.47297
Au 15.2138 24.9555 9.28579
Pt 15.1523 24.8018 13.1325
Au 17.162 22.9325 13.1663
Pt 17.1693 24.7968 11.241
Au 15.142 22.9157 15.1047
Pt 17.0264 26.3127 17.0536
Au 17.0894 23.1535 17.153
Pt 17.1492 24.8866 14.9978
Au 15.0607 23.2539 19.1182
Pt 15.1389 26.2775 18.8452
Au 17.0612 23.2565 21.2852
Pt 17.2411 24.9077 19.1977
Au 15.0448 23.1918 23.1993
Pt 14.9421 21.1124 24.8992
Au 16.9974 21.2962 26.5662
Pt 19.0645 22.923 22.9829
Pt 17.5209 7.35984 9.39518
Pt 19.4353 5.56121 13.3993
Pt 19.4633 7.40175 11.3764
Pt 19.3911 5.57556 17.3607
Pt 21.2978 5.63926 15.4154
Pt 19.221 5.73799 21.2191
Pt 19.3512 7.49491 19.3287
Pt 19.4375 11.2239 7.411
Au 19.4329 7.29358 7.42017
Pt 19.4663 9.27106 9.3632
Au 21.4802 7.29206 9.36504
Pt 21.3535 9.36614 7.50158
Au 21.3581 5.42995 11.5252
Pt 19.4107 9.35015 13.3123
Au 23.2855 5.55516 13.595
Pt 21.4173 9.30931 11.3572
Au 19.3913 7.4436 15.3557
Pt 19.3459 9.41773 17.3435
Au 21.248 5.48714 19.3027
Pt 21.2732 7.54614 17.4078
Au 17.3295 9.41067 19.2933
Pt 19.2937 9.40499 21.292
Au 21.357 7.37267 21.4486
Pt 21.3208 9.369 19.4012
Au 19.1645 9.40224 25.2317
Pt 17.1878 11.308 25.0753
Pt 21.1157 9.48263 23.2297
Pt 19.4952 13.0752 5.44814
Au 21.4385 11.2221 5.4599
Au 19.4567 9.29093 5.48327
Pt 19.3798 13.2216 9.23658
Au 21.4422 11.2981 9.36375
Pt 21.3798 13.1743 7.39272
Au 19.4221 11.2993 11.3056
Pt 19.3407 13.2758 13.2885
Au 21.3749 11.4076 13.3369
Pt 21.414 13.2816 11.2933
Au 19.3287 11.3794 15.3116
Pt 19.2852 13.3213 17.3092
Au 21.3204 11.4338 17.354
Pt 21.3855 13.3263 15.3309
Au 19.3164 11.4003 19.3303
Pt 19.2253 13.3204 21.3679
Au 21.2724 11.4244 21.3515
Pt 21.3043 13.3495 19.3573
Au 19.2008 11.3776 23.303
Pt 19.1496 13.3047 25.1848
Au 21.1258 11.4207 25.21
Pt 21.1984 13.3388 23.326
Pt 17.3523 19.1257 5.35801
Au 19.3906 17.092 5.07896
Au 19.3064 15.1369 7.16775
Pt 19.291 17.0125 9.22267
Au 21.346 15.1403 9.293
Pt 21.2765 17.0803 7.33264
Au 19.3293 15.1465 11.276
Pt 19.26 17.0409 13.2932
Au 21.38 15.1878 13.3256
Pt 21.3539 17.0558 11.3149
Au 19.2911 15.1834 15.2928
Pt 19.206 17.0849 17.2798
Au 21.3233 15.214 17.3105
Pt 21.3333 17.0831 15.3201
Au 19.2066 15.2161 19.3036
Pt 19.1287 17.1328 21.2889
Au 21.1951 15.2369 21.3155
Pt 21.2319 17.1371 19.2547
Au 19.082 15.2251 23.3384
Pt 19 17.2146 25.1586
Au 20.9197 17.3046 26.8933
Pt 22.9564 19.201 23.119
Pt 19.262 20.9691 5.54842
Au 21.105 22.8866 5.61423
Au 19.2307 18.9385 7.29185
Pt 19.1998 20.9664 9.32859
Au 21.2263 18.9955 9.38446
Pt 21.1555 20.9769 7.50743
Au 19.2068 18.9338 11.2818
Pt 19.1749 22.9539 11.2742
Au 21.2322 18.9741 13.3176
Pt 21.1459 21.004 11.3141
Au 19.1652 19.0001 15.3084
Pt 19.0753 21.12 17.2503
Au 21.2002 19.0334 17.2715
Pt 21.0393 22.8959 13.284
Au 19.0735 19.0813 19.1968
Pt 19.0359 21.0807 21.1372
Au 21.0828 19.1024 21.1375
Pt 23.1651 19.157 19.2165
Au 19.0235 19.1451 23.1488
Pt 19.0734 21.1399 24.9437
Au 22.8863 21.148 25.0284
Pt 21.028 21.0735 23.0071
Au 23.0401 22.9776 7.54717
Pt 21.0888 22.9904 9.4082
Au 24.9529 21.0159 7.55968
Au 19.1423 24.9642 9.363
Pt 19.1511 24.8339 13.2083
Au 21.1294 24.9831 11.3462
Pt 23.0134 22.9514 11.3504
Au 19.1436 20.9515 13.258
Pt 19.0692 22.985 15.2113
Au 21.0744 21.0804 19.1765
Pt 20.9983 24.8372 15.1932
Au 19.1007 23.1147 19.2587
Pt 21.0131 23.0141 21.1044
Au 22.9118 23.0754 22.9756
Pt 19.1707 24.9132 17.1141
Au 20.949 23.0318 24.8354
Pt 21.3786 7.46818 13.3742
Pt 23.1335 5.83959 17.2938
Pt 23.2417 7.5554 15.3874
Pt 23.3032 9.39461 9.51266
Au 23.4275 7.33152 11.4189
Pt 23.2996 9.45063 13.4025
Au 25.2339 7.55578 13.5348
Pt 25.0945 9.44711 11.5433
Au 21.3382 9.44903 15.3577
Pt 23.2371 9.45347 17.3791
Au 25.1898 7.56939 17.342
Pt 25.135 9.46782 15.4266
Au 23.3319 7.39047 19.4574
Pt 23.1333 9.50801 21.3075
Pt 24.9729 9.49978 19.2931
Pt 21.3583 15.1306 5.54523
Au 23.463 11.2193 7.40779
Pt 23.4153 13.2566 9.2852
Au 25.2985 11.2927 9.51075
Pt 23.3245 15.227 7.44106
Au 23.3802 11.3937 11.4198
Pt 23.4753 13.3381 13.3726
Au 25.5098 11.3704 13.4082
Pt 25.2511 13.289 11.3645
Au 23.4164 11.4383 15.3764
Pt 23.4205 13.3598 17.3439
Au 25.4488 11.3979 17.4081
Pt 25.2987 13.3385 15.3833
Au 23.261 11.4475 19.3325
Pt 23.255 13.3668 21.3975
Au 25.118 11.385 21.3074
Pt 25.1418 13.3417 19.4029
Au 23.1894 11.4119 23.3399
Pt 21.0775 15.3112 25.1068
Pt 23.0769 15.3087 23.2553
Pt 21.2155 19.0842 5.56009
Au 23.2111 17.1564 5.44759
Au 23.3 13.2998 5.58386
Pt 23.255 17.1022 9.34538
Au 25.368 15.2396 9.35108
Pt 23.1235 19.0632 7.4502
Au 23.423 15.184 11.3395
Pt 23.4114 17.11 13.3317
Au 25.5387 15.2743 13.3481
Pt 25.1717 17.1877 11.294
Au 23.452 15.2442 15.3452
Pt 23.3401 17.1554 17.3255
Au 25.4829 15.2995 17.3917
Pt 25.2081 17.2383 15.3665
Au 23.3156 15.2428 19.3278
Pt 23.1 17.2173 21.2221
Au 25.2004 15.3387 21.3929
Pt 25.0618 17.2422 19.373
Au 21.117 17.2141 23.2808
Pt 20.978 19.2453 25.0374
Au 23.0769 17.3351 25.2284
Pt 24.7432 17.3642 23.1386
Au 23.0831 21.0137 5.56806
Pt 23.0726 21.039 9.4441
Au 25.1658 17.2814 7.41634
Au 23.2642 19.0874 11.419
Pt 23.1107 21.0489 13.2913
Au 25.3426 19.1927 13.3479
Pt 24.9735 19.1091 9.42343
Au 23.2712 19.0621 15.3049
Pt 23.1149 21.0818 17.2642
Au 25.2788 19.1921 17.3368
Pt 24.8678 21.1186 15.3117
Au 24.9801 21.2331 19.224
Pt 23.0153 21.0977 21.109
Au 25.1434 19.2039 21.1945
Pt 22.9165 23.004 19.1271
Au 24.789 21.1141 23.0926
Au 25.127 21.1615 11.2971
Pt 22.8643 24.6718 13.3557
Au 24.9485 23.0163 13.3611
Au 21.139 21.0116 15.2949
Pt 21.0251 22.982 17.1881
Au 22.9343 24.8832 17.1244
Pt 23.0042 22.9756 15.3018
Au 21.0586 24.9891 19.1153
