561
Atoms. Timestep: 20515
Pt 7.41597 19.0582 15.3152
Au 22.1915 6.43212 9.07779
Pt 11.8456 11.3898 9.49527
Au 26.1619 12.4118 15.0011
Pt 13.6001 13.5536 17.5959
Pt 11.7864 8.61125 19.7868
Au 8.10432 15.768 7.21379
Pt 13.7156 21.433 19.773
Au 22.2239 23.8674 10.7738
Pt 13.4035 23.8217 9.77229
Au 8.55393 20.6047 24.3753
Pt 15.9978 15.976 22.6093
Au 19.143 8.50379 23.2762
Pt 11.1855 21.4179 13.6105
Pt 8.28092 10.6451 19.108
Au 18.2658 4.13392 17.2041
Au 19.6703 6.84541 21.1871
Pt 15.9174 18.6338 23.9517
Au 3.28472 11.2539 16.9976
Pt 6.40365 15.2252 15.0048
Au 17.0673 6.71841 22.0793
Pt 18.8334 17.3605 7.11337
Au 20.3795 21.9893 22.8315
Pt 19.2636 24.7419 13.523
Au 13.8919 16.2674 26.8151
Pt 11.7667 19.8231 20.4982
Au 7.44953 8.71868 21.0153
Au 24.8521 13.4437 8.23338
Pt 11.1006 24.5022 17.9478
Au 8.90027 22.6653 18.0481
Pt 22.7147 16.4174 20.3739
Au 23.4597 22.3273 9.09769
Pt 15.3341 24.5287 11.4739
Au 17.1307 13.7616 23.7337
Au 14.5299 8.0062 21.7188
Pt 11.9087 18.4252 14.0451
Pt 14.2174 24.7792 13.763
Pt 18.2181 22.2719 14.2925
Pt 5.74334 10.9836 17.8384
Pt 11.7516 14.0603 23.8083
Pt 9.39967 11.3058 15.3829
Pt 8.17128 16.9317 16.5796
Au 18.7098 15.3743 25.4551
Pt 17.0159 15.912 13.3615
Au 6.91314 7.2223 15.8493
Pt 9.24037 8.12965 18.7556
Au 16.1954 5.13067 15.4971
Pt 9.771 18.7009 21.9941
Au 5.51105 10.6197 20.4295
Pt 15.177 5.4694 12.1395
Au 19.2598 19.1283 5.21549
Pt 19.5784 19.6749 8.13263
Au 10.4071 26.2906 12.4647
Pt 19.1907 15.6966 11.8325
Au 12.4111 23.2536 24.5646
Pt 21.4297 18.4778 14.8985
Pt 16.0962 13.7882 21.1789
Pt 21.7661 14.3404 17.9958
Au 10.1782 4.30092 13.1437
Au 13.8869 9.67336 23.939
Pt 23.4698 10.9174 18.3963
Au 25.8226 17.4253 9.75327
Pt 10.0504 12.5356 17.7081
Au 13.0805 4.43409 18.9608
Pt 20.1467 22.6224 11.9646
Au 6.41804 10.9212 23.8228
Pt 7.87887 13.1107 14.0098
Au 19.1698 3.55091 14.5424
Pt 21.7824 18.6662 9.38
Au 3.75737 10.7625 14.3182
Pt 21.1827 16.2386 8.00278
Au 10.671 4.93386 10.639
Pt 15.5944 5.24469 18.0682
Au 17.9167 16.4681 4.53485
Pt 13.0211 10.4052 21.4706
Au 25.8375 19.2546 11.9126
Pt 10.5206 9.9157 17.3775
Au 26.0453 11.2879 17.538
Pt 13.4602 16.1069 18.5675
Pt 12.8181 24.8639 15.9058
Au 13.2092 11.9014 25.2861
Au 8.19631 8.80226 9.03123
Pt 18.9468 14.0304 18.5511
Au 17.795 5.29447 19.757
Pt 19.2658 6.0571 15.4085
Au 20.1483 5.9948 18.4245
Pt 16.3381 10.7783 15.131
Au 10.9291 24.9371 9.87047
Pt 20.5066 20.5225 13.4056
Au 18.687 12.8969 20.9797
Pt 20.608 11.8617 13.6873
Au 3.78105 15.2288 16.5949
Pt 14.9408 18.3022 8.52147
Au 9.75328 7.2951 21.3283
Pt 11.6627 14.2347 19.2909
Au 16.5216 18.82 4.55758
Pt 17.6739 6.80898 17.2958
Au 4.94967 20.0357 14.7689
Pt 9.21185 20.8902 20.0844
Au 23.7926 5.87604 13.4573
Pt 10.2461 10.2698 21.0262
Au 17.5747 7.77157 6.3808
Au 9.04069 22.7919 9.12829
Pt 16.0448 12.0419 11.2619
Au 13.9926 13.9663 3.68737
Pt 19.4608 14.1884 13.939
Au 19.5377 21.9139 6.78382
Pt 15.5903 17.9963 17.9273
Au 15.628 23.2412 18.7409
Pt 13.451 5.53003 16.3228
Au 15.069 3.08616 10.9622
Pt 15.3949 20.961 8.43844
Au 7.36858 18.398 23.2257
Pt 25.9592 18.3351 14.4528
Au 8.82993 23.5286 21.0212
Pt 16.7875 24.8985 13.9284
Au 10.2642 16.2966 14.6359
Pt 18.4827 18.279 19.5353
Au 21.8172 13.9331 4.42664
Au 15.5897 11.0088 22.0788
Pt 13.9239 17.4897 22.0763
Au 8.10775 26.0106 13.7904
Au 23.2065 12.5339 6.24679
Pt 11.5497 16.7591 23.075
Au 10.3021 5.27968 19.5716
Pt 15.9067 18.8119 13.2615
Au 12.5681 3.46369 12.0682
Pt 24.0583 13.1296 17.1038
Au 24.3495 19.8049 9.42507
Pt 13.4545 16.352 7.57715
Au 11.3029 16.2701 25.735
Au 17.719 12.8907 26.2345
Pt 24.3936 14.7421 14.8672
Pt 22.6913 10.5682 12.2615
Pt 23.737 12.8396 10.7315
Pt 10.616 20.3384 9.21593
Pt 7.56245 12.4998 16.9433
Pt 6.44083 10.9523 15.0131
Pt 10.2232 18.6015 16.2364
Pt 14.7917 20.5743 17.5132
Pt 15.5521 9.92387 9.05884
Pt 17.2393 8.29444 15.081
Pt 18.4729 24.1387 16.0813
Au 18.1944 15.7542 20.7504
Au 18.7828 24.1178 8.7239
Pt 7.87221 13.0244 11.1035
Au 18.086 26.8887 12.5976
Pt 11.425 14.3776 16.5183
Au 19.9154 6.91767 7.69508
Pt 9.85448 17.636 8.72187
Au 5.17001 17.3964 13.7192
Pt 7.34078 21.6182 14.0481
Au 8.37049 25.1755 18.765
Pt 14.2102 13 23.0494
Au 7.23291 13.5037 24.192
Pt 10.3867 15.1057 21.4335
Au 17.8706 18.0977 25.9588
Pt 22.2858 8.95394 10.1591
Au 8.86798 18.3385 6.31364
Pt 15.4437 22.6949 21.3795
Au 2.99265 12.8181 12.4351
Pt 14.4774 19.4475 10.929
Au 16.625 20.6206 19.6769
Pt 12.0766 11.3388 19.031
Pt 17.5648 14.7549 15.8201
Au 5.8406 25.3528 15.2919
Au 12.2095 18.8433 26.5479
Pt 6.86142 12.915 19.4878
Au 14.6913 3.36461 13.8809
Pt 8.18394 16.7478 21.1568
Au 7.71631 6.25434 19.7177
Pt 6.96364 17.2268 18.8771
Au 6.51213 10.9632 9.59208
Pt 11.5367 19.7896 11.5944
Au 19.9453 12.7608 24.7672
Pt 13.7423 7.06365 18.9354
Au 22.8812 14.499 22.476
Pt 20.0299 15.641 16.3756
Au 26.0053 13.379 19.3929
Pt 10.9739 22.8368 15.9102
Au 16.0618 14.3586 5.49538
Pt 19.2605 17.0367 14.3603
Au 4.26063 16.8182 18.7701
Pt 13.3735 22.6081 12.1473
Au 21.6963 4.23474 13.8627
Pt 12.9267 22.024 22.2918
Pt 21.5569 15.7294 13.6399
Au 2.58773 13.0759 15.1607
Au 25.2762 20.9732 14.2105
Pt 8.71718 18.9809 10.6474
Au 15.3596 26.9858 12.6768
Pt 15.4076 14.6221 8.19321
Au 12.4018 14.0233 26.5251
Pt 11.2501 9.60985 11.3596
Au 9.75887 13.8281 25.5696
Pt 12.5019 18.6141 17.93
Au 10.655 25.5976 20.2611
Pt 9.60912 12.9052 22.9634
Au 19.8729 25.3092 10.9632
Pt 19.505 8.16332 13.8013
Au 23.7776 10.93 8.68232
Pt 15.675 9.5017 12.842
Au 23.7703 10.1069 23.0587
Pt 9.5011 11.2362 12.7607
Au 26.154 11.9973 10.5331
Pt 16.1149 16.2519 25.1926
Au 18.2378 22.6305 21.1786
Pt 9.65801 7.88485 15.9044
Pt 14.134 12.5887 20.0098
Au 9.53114 23.148 24.0137
Au 21.8458 21.2634 20.6454
Pt 10.2604 17.3713 11.9509
Au 5.39295 19.4728 18.5137
Pt 20.1526 8.34128 16.68
Au 18.5397 10.3435 25.4312
Pt 21.3607 11.2056 7.41219
Au 16.9315 22.7641 6.8632
Pt 9.67437 18.2449 19.326
Au 26.9698 15.6562 14.5428
Pt 25.1249 11.1113 12.9728
Au 20.0271 9.1691 6.094
Pt 15.4444 11.9546 6.74944
Au 9.09336 13.4869 6.16381
Pt 18.9197 8.27316 19.1321
Au 19.5591 25.8495 18.0303
Pt 21.2435 13.7238 11.6615
Au 23.0815 22.762 18.6601
Pt 9.78303 13.4689 8.88665
Au 5.13391 21.619 12.4344
Pt 7.3327 19.2628 20.5666
Au 22.1264 25.1645 18.068
Au 6.51108 17.4405 11.0963
Pt 23.2742 19.6688 13.1276
Au 8.97478 15.8489 23.7851
Pt 13.0265 21.2735 9.80177
Au 24.0497 7.03922 11.0581
Pt 14.6546 9.70348 19.5087
Au 16.7559 11.5411 19.5793
Pt 21.4074 11.5236 10.1669
Au 26.1434 14.744 10.3224
Pt 16.828 17.4762 15.5231
Au 10.4622 20.5437 6.55227
Pt 23.6987 17.1764 13.8947
Au 21.6144 8.93407 19.0163
Pt 21.5342 16.1107 10.5987
Au 20.5338 16.1532 5.2617
Pt 15.5946 21.7705 10.8822
Au 22.9952 22.5977 13.1402
Au 13.3569 11.6052 4.97222
Pt 20.3914 16.4426 18.9174
Pt 20.5927 22.1666 9.33228
Pt 12.4839 13.948 8.81495
Pt 7.81061 9.58699 16.7951
Pt 13.1038 22.7177 17.5955
Pt 10.6511 16.436 17.8657
Pt 18.0841 14.8885 7.12176
Pt 19.4 17.5136 9.76605
Pt 20.6868 23.0235 17.3608
Pt 13.5698 22.4141 14.9347
Pt 12.9142 5.60886 13.603
Pt 14.2051 18.8041 19.8685
Pt 11.5166 18.0272 6.75527
Au 26.0202 18.9847 17.4858
Au 15.2038 26.6193 15.5637
Pt 8.83163 14.5106 16.1256
Au 5.56657 8.67422 13.6097
Pt 17.7598 8.31461 11.8349
Au 5.55055 15.1381 20.3811
Pt 19.6737 12.9278 16.2556
Au 22.0795 20.7204 7.57284
Pt 21.7975 7.60736 12.4343
Au 5.35117 17.7365 21.1809
Pt 5.13186 13.0191 15.9869
Au 8.43266 6.49862 13.619
Pt 21.0531 12.1606 19.2722
Au 20.4173 11.6484 4.92969
Pt 12.9939 20.2281 7.45436
Au 8.63508 21.4355 11.5988
Pt 25.8055 16.5766 12.3748
Au 18.9963 13.9577 4.26805
Pt 13.4484 14.9842 21.2989
Au 12.3888 6.19635 21.1112
Pt 17.964 21.6277 9.29381
Pt 17.124 13.1474 13.5502
Au 13.9538 24.6779 22.7341
Au 15.6327 25.4138 20.4637
Pt 12.9918 8.66373 9.53814
Au 5.70647 15.5566 9.20657
Pt 21.5323 9.57504 14.4329
Au 7.03602 17.9606 8.41686
Pt 14.714 11.239 17.3372
Au 11.7608 8.35969 22.7431
Pt 17.432 6.19098 13.4539
Au 11.4883 22.7336 8.01281
Pt 13.0211 17.49 11.8235
Au 14.0874 25.6723 18.0689
Pt 6.33596 14.9217 17.6428
Au 9.80127 16.1173 4.99159
Pt 22.6687 10.8703 20.9006
Au 19.5658 24.4978 22.6035
Pt 23.7647 15.6138 9.38728
Au 26.8141 16.262 18.5464
Pt 15.631 16.2567 19.949
Au 11.0804 4.01544 17.2589
Pt 14.3492 16.629 13.947
Pt 10.8526 20.6824 18.0015
Au 24.6678 7.03606 15.7419
Au 17.6971 21.2112 4.89012
Pt 12.1576 11.6945 15.9984
Au 13.9854 18.4522 5.67132
Pt 9.26817 10.9674 10.1397
Au 6.16843 23.8608 17.644
Pt 7.83296 14.2251 21.5872
Au 4.03355 16.117 11.3285
Pt 23.935 8.64182 13.6448
Au 23.992 8.535 20.5109
Pt 17.7696 23.5215 11.4697
Au 21.1697 4.51187 16.451
Pt 20.1498 9.84327 11.7374
Au 12.4677 27.3737 16.6195
Pt 10.874 7.0427 12.6369
Au 11.3769 13.7029 4.72344
Pt 22.5498 16.3542 16.2768
Au 7.47337 21.4186 22.161
Pt 15.2789 7.80126 10.7626
Au 24.2669 20.3109 19.2365
Pt 19.006 10.414 15.522
Pt 19.2223 10.7442 18.3002
Au 16.8471 24.5989 22.7461
Au 12.9734 25.9017 11.4502
Pt 23.3561 13.3661 19.9437
Au 7.80073 11.3676 21.7565
Pt 19.7264 20.041 10.7695
Au 26.5376 14.2607 16.8614
Pt 18.0495 12.4368 6.20032
Au 15.955 11.3859 24.853
Pt 15.0994 7.72154 16.7463
Au 10.48 7.43182 9.79926
Pt 8.16949 9.16163 14.1413
Au 8.61695 24.5587 11.2383
Pt 17.7163 10.2275 7.49857
Au 6.22269 15.8371 23.0146
Pt 11.9998 15.215 12.6316
Au 4.84858 9.02891 16.2482
Pt 12.4459 7.69986 15.319
Au 15.2714 22.7271 24.1138
Pt 15.5214 23.7947 16.0859
Au 12.928 3.99132 9.48133
Pt 23.5751 17.8333 11.1991
Pt 16.0799 16.9003 6.58369
Au 15.0643 5.35597 20.7384
Au 17.6299 3.4234 9.94313
Pt 12.9933 9.21595 17.4223
Au 24.8855 9.58022 10.8576
Pt 23.845 19.0159 15.9159
Au 14.0804 22.9987 7.28064
Pt 18.2517 18.172 12.1247
Au 7.9483 26.5152 16.4517
Pt 19.8455 5.75418 12.6167
Au 20.8757 25.5933 15.6642
Pt 10.9858 22.6015 11.0855
Au 22.703 17.0162 23.2156
Pt 17.1319 19.5504 7.12309
Au 10.1233 27.7632 15.027
Pt 14.3414 12.213 9.0366
Au 18.2921 11.245 23.0418
Pt 11.884 12.7017 21.5548
Au 5.0948 22.8037 15.1025
Pt 23.6179 11.2015 15.235
Au 18.1849 26.6991 15.4367
Pt 10.2225 25.2901 15.439
Pt 11.2215 22.5523 19.8773
Pt 15.7723 22.528 13.3611
Pt 9.24735 21.0302 15.7292
Pt 13.2779 13.138 11.2723
Pt 5.40269 12.7579 13.3499
Pt 7.91153 17.0588 13.5717
Pt 11.2679 23.9409 22.2028
Pt 25.7327 13.7986 12.7491
Au 3.86234 14.9953 13.8273
Pt 10.75 5.69434 15.2161
Au 24.7701 21.6699 11.4134
Pt 16.9994 12.7075 8.83706
Au 6.49525 23.9753 12.9819
Pt 6.6304 21.3279 16.6906
Au 21.8511 25.0647 13.1598
Pt 22.4695 21.1068 15.2973
Au 8.78026 5.69391 17.2542
Pt 21.9731 20.4338 17.7536
Au 15.0708 7.60762 7.74673
Pt 17.9093 10.4603 10.2495
Au 16.6559 20.7263 25.5601
Pt 8.71043 15.0618 19.0079
Au 8.67831 11.2098 7.55997
Pt 17.0887 19.2339 9.93043
Au 20.6804 23.7644 20.0857
Pt 18.3545 23.5 18.6817
Pt 24.2278 15.4537 18.4143
Pt 16.8624 14.6307 10.7335
Au 12.616 26.9817 13.9933
Au 21.5429 14.9542 24.7935
Pt 19.8498 20.829 16.1418
Au 23.1518 15.2159 6.55763
Pt 12.4124 18.2689 9.35333
Au 16.8083 2.57214 15.4286
Pt 15.0465 15.7336 16.4541
Au 17.6421 5.47401 8.07193
Pt 23.1829 12.944 13.309
Au 5.08897 13.1921 10.5943
Pt 19.9532 9.45603 8.83543
Au 12.18 3.31241 14.91
Pt 20.1967 18.3153 17.1518
Au 16.9848 20.8365 22.7944
Pt 19.3856 14.7155 9.40728
Au 15.2355 5.36114 9.34952
Pt 13.2006 14.1061 14.6557
Au 6.28654 8.30758 18.5692
Pt 21.434 11.1227 16.7435
Au 15.0775 20.9616 5.69082
Pt 25.2239 16.7227 16.3644
Pt 11.7229 24.1941 13.4024
Au 17.2078 3.55266 12.6757
Au 16.6475 14.4313 2.94362
Pt 12.1029 19.4804 23.1461
Au 6.29693 8.57925 11.0007
Pt 11.2202 15.7909 10.0799
Au 24.6946 12.523 22.1258
Pt 9.17557 14.9688 12.4593
Au 5.40886 17.577 16.4483
Pt 10.3378 21.3369 22.384
Au 13.324 10.1275 7.27968
Pt 14.3209 18.6564 15.6464
Au 6.37592 15.0091 12.2465
Pt 11.8123 17.12 20.3928
Au 22.7606 6.54711 17.6319
Pt 16.1011 14.1194 18.44
Au 22.7985 12.4087 24.2334
Pt 13.8263 9.88223 14.9416
Au 13.1681 24.2714 20.1728
Pt 19.9602 7.43532 10.5077
Au 18.1679 22.7503 24.2415
Pt 17.3692 12.2345 17.0559
Pt 22.0375 13.6823 8.80777
Au 21.7936 8.41923 22.1391
Au 21.4223 19.4568 23.1353
Pt 13.9742 15.65 10.1832
Au 17.2146 25.9393 10.2457
Pt 23.6256 15.2126 12.0132
Au 25.144 15.3044 21.0752
Pt 17.5601 7.97951 9.12693
Au 14.4114 3.14301 16.7135
Pt 9.3057 23.3542 13.4971
Au 21.0278 10.3583 23.9133
Pt 15.7823 17.127 11.2717
Au 6.17841 20.1595 10.1066
Pt 22.2098 20.8003 11.0297
Au 24.7043 21.4859 16.821
Pt 13.8732 10.4852 11.177
Au 4.48219 10.6303 11.6461
Pt 18.066 10.7338 13.0454
Au 16.0421 11.9897 4.08455
Pt 18.2913 19.4835 14.5379
Au 11.0871 21.011 25.1611
Pt 13.515 13.9177 6.39219
Au 20.4494 17.4449 24.7533
Pt 15.9313 20.7093 15.1453
Au 25.2403 17.7939 19.9226
Au 25.0957 8.68594 18.0412
Pt 22.9562 8.95198 16.5143
Au 23.3399 18.942 21.3909
Pt 21.0413 18.1198 12.2427
Au 8.38607 15.6725 9.97664
Pt 11.4323 12.2229 7.02801
Au 7.96453 23.762 15.7211
Pt 13.857 15.3845 24.0993
Au 12.5619 16.1635 4.92462
Pt 21.0677 12.4841 22.218
Au 17.9706 10.1897 4.72381
Pt 12.3324 20.3969 15.9154
Au 15.5145 9.52704 5.70463
Pt 9.59148 12.7243 20.1822
Pt 17.6737 20.8318 12.189
Pt 12.5813 16.6918 15.99
Pt 17.069 16.6278 9.03276
Au 8.19224 20.3805 8.16954
Pt 17.3477 21.8801 16.9617
Au 9.00676 9.29742 23.2327
Pt 23.1079 17.9731 18.2178
Au 8.7922 11.3517 24.9559
Pt 21.8035 6.87614 15.0173
Au 21.5481 18.3898 6.42215
Pt 13.1868 8.39345 12.688
Au 19.0721 19.9904 24.4395
Pt 17.7347 16.3809 17.9054
Pt 10.7014 13.1226 11.3083
Pt 20.8809 14.5377 20.597
Au 11.2729 10.9253 23.7036
Pt 20.4976 13.8047 6.7353
Au 10.0011 18.4009 24.7394
Pt 16.0642 23.6539 9.13673
Au 5.48848 12.9059 22.0471
Pt 16.2642 7.52176 19.4803
Au 7.13162 13.3834 8.41482
Pt 18.8552 12.7383 11.3602
Au 25.743 9.56627 15.41
Pt 11.4249 6.82967 17.7065
Au 17.3948 9.2481 21.1407
Pt 10.915 9.39162 14.1471
Au 22.1285 4.96558 11.3062
Pt 7.01294 10.8201 12.324
Au 25.4256 10.7848 20.2248
Pt 21.9963 13.6607 15.4519
Au 15.1552 13.8235 25.9102
Pt 10.583 13.4125 14.1617
Pt 19.4136 12.2027 8.6393
Pt 13.7368 20.2587 13.358
Au 13.8609 20.6096 24.9937
Au 15.1931 18.6393 26.6157
Pt 17.7344 19.35 17.2324
Au 23.7957 17.7052 7.77129
Pt 14.974 7.20543 14.1788
Au 23.0903 23.7079 15.9129
Pt 14.9522 14.5319 12.5648
Au 12.6138 6.36959 8.2985
Pt 19.6267 14.8643 22.9386
Au 19.2087 19.7895 21.6023
Pt 8.85607 8.63735 11.7146
Au 19.8115 3.26937 11.7691
Pt 14.539 20.1073 22.162
Au 22.3289 8.67243 7.50965
Pt 20.4422 17.157 21.7023
Au 10.1806 26.997 17.816
Pt 6.86022 19.4782 12.7068
Au 15.1238 16.4951 3.98486
Pt 19.8527 5.0243 9.75679
Au 6.63009 22.8137 10.4728
Pt 17.5861 5.88264 10.8513
Au 4.48598 18.0266 9.41643
Pt 12.1474 11.4825 13.1891
Au 4.25069 19.0878 11.8625
Au 19.9862 10.16 21.0314
Pt 15.4024 13.2744 15.6207
Au 4.27844 13.2726 18.6473
Pt 14.6084 11.9982 13.4731
Au 10.9019 15.3526 7.21359
Pt 13.5297 17.8595 24.6217
Au 16.5253 8.91164 23.7883
Pt 20.7504 22.9899 14.6997
Au 6.65254 21.7944 19.4775
Pt 8.11304 19.6148 17.8756
Au 18.2425 17.37 23.2731
Pt 12.943 6.3176 10.977
Au 19.4741 20.9996 18.9852
Au 16.8311 25.7101 17.7775
Pt 16.5566 18.3694 21.3096
Au 16.9248 9.49748 17.6122
Au 22.1844 6.53287 20.2404
Pt 9.42181 19.4197 13.5254
Au 10.7269 9.45392 7.95542
Pt 21.1532 18.845 19.7574
Au 18.3179 25.4619 20.4611
