561
Atoms. Timestep: 20651
Pt 13.6084 8.54622 20.7095
Au 7.33493 22.8785 16.1459
Pt 14.303 9.10966 16.0252
Au 6.21537 12.6475 7.77037
Pt 9.66314 15.7753 9.60564
Pt 8.47841 8.06814 11.4431
Au 20.2426 26.0775 13.1062
Pt 8.16497 15.1692 21.7296
Au 7.65161 24.0254 18.8257
Pt 11.5324 8.77921 16.8273
Au 9.3175 26.1722 19.0911
Pt 12.001 21.6138 18.7609
Au 12.6111 13.1131 4.6953
Pt 17.78 8.42318 21.5457
Pt 8.27311 15.4773 16.5231
Au 20.8846 17.7941 4.90921
Au 14.3541 7.15266 23.224
Pt 5.88328 14.7201 17.5145
Au 12.6271 19.2107 4.14206
Pt 9.03312 17.6102 22.2212
Au 17.521 15.6963 26.961
Pt 6.57842 17.4081 17.4095
Au 4.16959 17.8378 15.8317
Pt 13.9291 11.3257 20.8014
Au 17.367 18.4193 27.642
Pt 15.7345 20.0482 23.8695
Au 6.03211 21.8584 18.3072
Au 22.4259 15.7025 24.9896
Pt 12.595 21.5505 15.9366
Au 18.474 25.9236 19.4355
Pt 14.7106 19.2984 15.0114
Au 24.802 11.2866 22.4935
Pt 12.0389 17.5585 22.0474
Au 11.0506 15.3376 4.35418
Au 4.03196 13.2377 21.3513
Pt 12.7339 21.6805 9.13116
Pt 15.7664 15.6147 24.9157
Pt 12.9379 15.1873 6.54215
Pt 15.0627 7.6126 18.3282
Pt 17.2992 10.7149 9.69645
Pt 12.9953 10.5296 7.53227
Pt 12.302 12.1833 9.62304
Au 8.24121 19.028 24.4847
Pt 20.2534 15.4287 6.355
Au 13.6911 16.5673 4.23317
Pt 15.4777 11.3089 24.7054
Au 23.7816 13.5113 23.9212
Pt 16.7153 8.28927 10.7331
Au 11.9738 8.06566 7.32972
Pt 25.3644 15.1771 19.3136
Au 5.60148 17.9497 8.39571
Pt 11.7538 9.95893 14.515
Au 6.303 13.5358 22.7108
Pt 5.56417 13.2406 15.1552
Au 20.4499 24.0203 19.7196
Pt 11.8264 9.96997 21.9568
Pt 22.2984 20.0175 12.1151
Pt 15.5762 15.2778 7.49881
Au 19.805 4.61934 14.3151
Au 10.9991 5.68601 8.52954
Pt 16.9781 9.53993 17.5133
Au 9.70011 13.0783 5.24394
Pt 10.5717 16.5305 15.6552
Au 14.0748 26.5365 19.4764
Pt 7.34251 17.0505 10.346
Au 14.5718 8.31898 6.34452
Pt 7.30571 14.4251 9.79671
Au 7.23793 19.6837 22.0289
Pt 12.2173 11.1134 12.1162
Au 10.4814 7.84594 20.5694
Pt 17.6495 10.4475 23.4257
Au 6.06482 7.72181 10.4012
Pt 23.7085 10.9395 19.7666
Au 16.3329 6.09285 9.12196
Pt 17.7453 7.38836 18.8497
Au 10.5919 20.1975 25.4547
Pt 16.0504 12.1874 22.2179
Au 21.721 13.1132 25.8273
Pt 24.2817 11.0494 17.0336
Pt 9.69669 19.304 20.1426
Au 10.9523 10.5716 5.7586
Au 3.06802 12.4536 16.1985
Pt 10.7054 17.7214 24.3161
Au 24.3441 22.2931 17.9973
Pt 19.2556 12.9025 9.31534
Au 11.808 16.5038 11.4014
Pt 7.16789 10.189 11.9061
Au 10.1616 4.41364 13.1391
Pt 9.70394 18.4527 7.65668
Au 15.3167 18.5878 3.32886
Pt 17.449 13.2255 24.493
Au 21.9924 23.4903 17.4816
Pt 7.84549 9.3096 9.10755
Au 8.35244 21.236 7.52085
Pt 14.7234 12.6137 12.1622
Au 14.1097 5.15173 18.9974
Pt 14.6295 13.8378 9.76641
Au 8.55879 21.8356 23.3141
Pt 16.2434 7.05949 16.0714
Au 13.7953 25.3123 21.9811
Pt 9.56604 10.5609 20.6788
Au 5.47926 19.0939 10.8599
Au 21.9355 24.1504 9.46186
Pt 14.7316 11.1572 9.92799
Au 19.4061 20.374 8.36073
Pt 20.3027 7.70753 17.67
Au 7.79281 23.1742 12.2674
Pt 10.5184 13.9554 20.4095
Au 4.39067 19.0202 13.418
Pt 7.5813 17.1267 19.9918
Au 3.54205 13.883 18.6087
Pt 7.92556 18.8975 12.4208
Au 15.2946 14.8411 18.1611
Pt 9.82278 21.6339 16.2875
Au 13.3534 11.9334 26.0931
Pt 7.06195 9.94778 16.6362
Au 17.6538 10.904 26.2172
Pt 13.5012 7.95915 13.829
Au 8.03562 11.1542 23.171
Au 6.08664 6.64336 12.9421
Pt 18.5873 25.0508 14.9715
Au 6.02357 21.0579 12.689
Au 16.0124 23.843 22.9785
Pt 11.7023 17.1267 8.42555
Au 4.14509 16.6747 18.3938
Pt 8.90029 21.5709 18.655
Au 19.8099 6.95121 22.9897
Pt 9.11759 20.9106 11.5547
Au 10.7367 15.6535 25.9094
Pt 14.4189 17.775 24.2816
Au 4.85237 19.4478 17.9032
Au 9.34057 8.8862 22.8444
Pt 16.6806 14.8471 22.5493
Pt 16.7907 13.0309 8.38421
Pt 7.82803 11.761 9.66399
Pt 6.00067 13.1244 19.6356
Pt 7.47701 11.0878 18.9955
Pt 14.2828 10.6666 13.8662
Pt 7.76054 12.7888 16.8517
Pt 10.5425 15.3429 22.8274
Pt 11.7055 10.1617 19.266
Pt 10.402 23.7633 19.0287
Pt 11.5429 12.8681 7.13825
Au 25.8715 13.171 10.1606
Au 6.40206 17.0725 22.694
Pt 21.4199 13.341 10.788
Au 16.549 4.5215 12.1774
Pt 9.95167 13.2663 10.6872
Au 5.50418 15.2589 8.01264
Pt 8.8645 6.76502 13.5843
Au 13.1551 23.8542 7.05016
Pt 15.9722 22.9242 11.5856
Au 15.8735 13.3231 26.6295
Pt 12.7838 15.823 24.0869
Au 11.5404 13.3731 24.7355
Pt 21.917 9.09501 19.4506
Au 26.1583 10.3943 18.9677
Pt 9.99459 21.8823 21.0009
Au 8.27002 6.55187 9.00528
Pt 15.2233 9.57863 22.5902
Au 13.1412 21.4428 25.6073
Pt 9.79553 10.5265 11.0676
Au 12.3488 4.43693 14.8746
Pt 16.8852 18.0453 25.1657
Pt 11.5396 17.5317 5.80469
Au 24.6366 12.8813 7.59914
Au 7.54931 14.533 6.12335
Pt 16.5859 10.582 12.2373
Au 7.34556 18.9368 6.52599
Pt 13.977 17.5586 6.95706
Au 18.4827 6.1612 10.9041
Pt 10.2323 10.8462 8.46282
Au 18.7819 11.1239 4.56416
Pt 22.509 10.0922 22.0576
Au 16.7198 15.6659 10.3993
Pt 7.83119 19.3487 9.3411
Au 12.0838 11.516 16.7842
Pt 5.79814 14.4963 12.6365
Au 23.2884 6.64799 16.4057
Pt 6.90374 8.75388 14.2578
Au 4.7309 10.5034 14.9259
Pt 18.9744 18.0876 20.9079
Au 7.81379 5.32642 11.4386
Pt 7.63247 12.7619 12.0224
Au 25.579 17.6865 17.9862
Pt 21.9337 15.1331 22.4286
Pt 14.2212 12.9098 7.2775
Au 11.7022 24.1798 9.49278
Au 11.7891 4.04991 10.7765
Pt 10.2161 15.3995 6.92527
Au 14.1215 10.271 18.2858
Pt 15.0885 14.3757 5.05612
Au 14.1115 16.51 9.49041
Pt 12.312 9.60813 9.89668
Au 18.3117 14.823 18.0237
Pt 15.6434 10.6252 7.53778
Au 16.7808 15.091 15.7942
Pt 12.1855 17.2027 17.5143
Au 12.4057 13.8625 11.7655
Pt 18.6804 8.67409 12.4938
Au 14.5707 15.5761 12.0848
Pt 20.748 19.6636 22.2205
Au 15.6451 6.64173 20.8427
Pt 18.3134 19.4215 23.2087
Au 16.0807 8.72641 25.1266
Pt 10.312 16.5969 20.1647
Au 7.03943 6.21044 15.5222
Pt 21.0495 19.525 19.4934
Pt 12.3386 19.7422 7.27108
Au 12.6368 21.6722 5.36419
Au 13.4664 26.179 14.2581
Pt 12.0162 14.6392 9.0662
Au 17.0647 6.84355 23.4764
Pt 7.99914 14.0438 14.3415
Au 3.36398 13.6252 13.6905
Pt 9.88353 18.2572 10.5449
Au 4.97948 13.2751 10.2114
Pt 14.7214 17.6394 19.1579
Au 21.2083 4.93607 16.7139
Pt 9.38584 18.9609 15.3482
Au 21.0529 8.57475 7.63296
Pt 14.5454 23.6125 9.39041
Au 12.874 15.6691 19.7132
Pt 22.354 20.5405 17.3671
Au 17.282 19.7838 10.1781
Pt 8.12964 14.6484 19.0544
Au 21.4827 8.7816 24.2103
Pt 18.3439 16.1428 24.3188
Au 20.1865 15.7526 26.4313
Pt 21.4384 21.8915 13.7671
Au 15.01 17.0124 27.1018
Au 24.4176 19.9142 19.1183
Pt 7.20296 19.6252 19.3582
Au 6.83641 21.6162 10.1047
Pt 6.16909 17.063 12.6834
Au 3.75566 11.3098 19.554
Pt 20.0598 14.2883 24.1587
Au 10.8559 25.8822 14.8275
Pt 8.14753 21.0464 14.2002
Au 5.16704 18.289 20.441
Pt 13.081 24.1606 18.7605
Au 23.4726 21.9835 10.1164
Pt 10.5524 15.0691 18.0001
Au 9.38543 25.3582 12.5717
Pt 22.7357 15.4424 19.8328
Au 9.09425 24.3665 21.3105
Pt 9.17066 17.604 17.8718
Au 5.41494 10.5032 9.90388
Au 5.4082 20.8705 15.4811
Pt 6.01305 15.8965 15.0782
Pt 14.6175 8.4693 9.03394
Pt 24.3403 12.0446 12.3746
Pt 14.9536 13.9427 20.6562
Pt 10.2695 8.22501 9.45336
Pt 14.924 6.57508 11.617
Pt 21.4833 12.4034 22.9411
Pt 16.1543 17.4675 5.6355
Pt 17.7095 13.7545 20.3789
Pt 20.9423 11.4466 20.4377
Pt 20.5147 6.77065 12.6732
Pt 14.9667 5.74271 14.1436
Pt 17.9696 11.0662 20.7388
Au 17.7491 22.3123 6.37258
Au 20.4624 13.2835 4.35557
Pt 8.48012 16.7824 14.1142
Au 11.3164 22.2018 23.6089
Pt 19.3038 15.2479 10.9085
Au 22.3297 7.4396 21.766
Pt 13.4087 6.68259 16.2827
Au 8.90951 17.0875 5.25038
Pt 19.1702 8.79286 9.70886
Au 12.4539 12.758 14.3576
Pt 14.5028 13.7168 23.922
Au 26.2737 12.8968 17.7434
Pt 19.0476 13.1449 6.64026
Au 14.3191 4.49075 10.1035
Pt 11.2138 7.08296 14.7133
Au 26.8589 18.0752 11.2809
Pt 25.2474 16.0155 10.3339
Au 16.9052 20.526 4.41534
Pt 9.32058 9.5279 13.5751
Au 16.6606 9.61467 5.21391
Pt 14.4124 16.1978 21.9433
Pt 22.7863 15.1676 7.04366
Au 23.1215 10.6251 7.40288
Au 12.7196 12.9561 19.0356
Pt 19.0429 17.7356 9.44402
Au 17.6813 13.5209 3.67153
Pt 16.5172 10.2226 15.0893
Au 27.4182 15.265 11.5325
Pt 20.7587 11.066 6.34635
Au 19.2275 12.2907 18.536
Pt 11.326 8.40308 12.2078
Au 21.0347 6.75884 9.8655
Pt 23.1052 13.2609 15.9668
Au 10.617 14.9139 13.5027
Pt 17.9023 6.35307 13.6442
Au 12.8737 16.4821 14.2602
Pt 9.5452 10.8573 15.9455
Au 20.2594 20.6933 24.5599
Pt 19.1829 15.6588 21.8127
Au 24.2946 8.42131 18.3324
Pt 12.4381 7.35635 18.728
Au 11.2187 24.8069 22.9409
Pt 8.48614 15.3816 11.9826
Pt 19.9043 22.9714 15.7666
Au 14.7895 25.4818 11.4919
Au 3.41398 9.94478 17.2284
Pt 22.9929 8.09775 13.9986
Au 24.0478 22.003 12.7657
Pt 19.6977 13.2307 12.8102
Au 17.5075 25.2171 12.3649
Pt 16.7353 22.0177 8.93672
Au 14.6549 16.9852 16.4228
Pt 17.0106 19.8288 7.09729
Au 16.0033 17.2269 13.9042
Pt 18.9116 20.8086 20.6331
Au 13.3627 18.6924 12.7199
Pt 14.4734 20.5777 19.7908
Au 9.63045 5.19966 15.7814
Pt 23.6907 15.5813 17.3623
Au 12.8378 14.5787 16.6247
Pt 7.35777 11.4218 14.3744
Au 7.2646 22.1584 20.8395
Pt 20.5258 17.3273 23.5104
Au 14.656 4.31153 16.4435
Pt 12.7032 19.6036 23.7975
Pt 14.6761 19.7632 5.70579
Au 15.9641 24.1648 7.17907
Au 22.3184 21.8969 19.9145
Pt 19.9951 21.7403 18.2922
Au 10.8676 10.5709 24.4824
Pt 14.6903 21.7266 7.38005
Au 23.0593 6.85486 11.66
Pt 18.3593 22.2195 11.0821
Au 17.1994 17.2928 17.6052
Pt 13.6514 21.3348 13.4495
Au 14.6446 26.537 16.8328
Pt 9.02696 8.11555 15.9194
Au 16.7541 12.7894 13.9377
Pt 17.5921 15.2374 5.72047
Au 19.4106 14.0647 15.36
Pt 12.2626 18.5998 19.6824
Au 8.8025 13.5865 24.0895
Pt 13.2234 23.137 11.5643
Au 8.96594 25.0734 16.6581
Pt 21.7727 19.5958 9.5169
Au 19.6063 5.21797 18.8788
Pt 9.49935 23.4516 14.426
Pt 14.626 20.8473 10.8949
Au 9.18697 22.9642 9.62396
Au 22.4547 5.40041 14.0392
Pt 10.3956 20.4944 9.19188
Au 17.4307 26.4525 17.0158
Pt 18.4331 8.41237 15.2511
Au 22.2481 24.1216 12.1698
Pt 12.2596 20.5405 21.3047
Au 3.53441 15.1386 16.0445
Pt 11.7863 20.7389 11.5473
Au 17.0986 24.6639 9.68493
Pt 12.6618 13.8933 21.9624
Au 19.0439 8.57948 5.91583
Pt 21.0383 17.7526 7.64738
Au 15.2226 22.5774 5.0144
Pt 16.3815 24.0712 16.0845
Au 18.9352 16.8343 15.2819
Pt 14.9733 23.1695 20.5208
Au 12.5531 18.0169 26.223
Pt 10.8339 21.0236 13.9035
Au 23.2194 19.767 21.51
Pt 12.174 23.5803 14.0399
Pt 10.2648 6.16514 11.1129
Pt 19.8889 11.3072 24.6719
Pt 7.89333 16.539 7.80607
Pt 22.7423 15.6783 11.5211
Pt 9.09278 13.3952 8.06782
Pt 20.928 10.7711 9.23721
Pt 9.30075 9.35015 18.2608
Pt 14.2061 9.17935 11.627
Au 11.7664 26.2118 17.5594
Pt 18.3257 15.3313 8.2588
Au 13.8116 6.07477 7.9112
Pt 8.22976 12.7135 20.9924
Au 22.8239 12.8357 5.55256
Pt 19.3131 11.0467 11.3694
Au 8.22503 11.1319 6.7123
Pt 12.4599 5.89433 12.6144
Au 5.00911 11.8029 12.5185
Pt 9.9016 12.1621 13.3872
Au 4.81945 9.03304 12.4769
Pt 23.4986 14.287 9.49473
Au 5.13903 8.05851 16.2561
Pt 21.8058 11.3424 12.3963
Au 25.8115 12.7869 20.4859
Pt 18.3106 17.7194 12.2005
Au 25.7681 18.1149 8.77651
Pt 15.3614 21.7382 15.3603
Pt 23.6544 17.8177 15.9709
Pt 21.5803 13.0221 7.94584
Au 22.2005 15.4482 4.50079
Au 14.2267 10.9966 5.13916
Pt 10.573 18.3766 13.0635
Au 19.3833 20.117 5.5892
Pt 18.7698 11.0098 14.0073
Au 22.278 6.40103 19.0391
Pt 5.34851 11.8381 17.4229
Au 24.0065 19.9712 8.23582
Pt 16.0973 8.21717 13.4764
Au 14.6013 14.3933 14.4683
Pt 16.9921 21.7784 19.0403
Au 17.5643 19.1478 15.1892
Pt 13.2143 11.6109 23.3052
Au 12.6973 18.8873 10.0239
Pt 18.6426 6.02759 16.4374
Au 22.95 10.9736 24.6429
Pt 10.7316 19.6074 17.6238
Au 5.42338 15.514 20.5856
Pt 10.5467 12.2961 22.4188
Au 18.8618 8.65034 24.9048
Pt 20.5387 14.0118 20.3827
Pt 20.832 9.46843 14.0754
Au 7.24629 7.44662 17.9956
Au 5.96075 10.9566 21.3133
Pt 16.614 12.3827 5.81477
Au 25.4575 20.3405 10.7577
Pt 21.263 9.00416 11.4512
Au 10.183 20.0353 5.58529
Pt 18.7406 19.3973 18.1146
Au 17.5774 12.2861 16.4856
Pt 17.0664 8.47162 7.91838
Au 20.0909 16.7317 18.8164
Pt 19.6975 19.8229 11.2669
Au 23.5933 17.6358 6.37578
Pt 17.3156 22.8549 13.9151
Au 16.7275 5.05164 18.1428
Pt 24.3177 15.3982 14.8291
Au 27.0302 12.7269 12.6904
Pt 10.189 19.8291 22.7299
Au 12.7072 6.09063 21.1535
Pt 16.0383 19.7687 17.4642
Au 13.3619 9.32839 24.7254
Pt 12.0741 18.9484 15.2727
Pt 23.4167 10.8047 14.5221
Au 9.86672 6.62753 18.1296
Au 13.9551 3.70014 12.6892
Pt 17.7567 21.592 16.4402
Au 3.73479 16.2893 13.4354
Pt 16.6933 17.5406 22.525
Au 15.5892 18.1125 11.2707
Pt 20.7751 7.13791 15.2323
Au 21.6582 15.8166 15.5172
Pt 7.59744 20.014 16.8641
Au 16.1049 12.108 18.8695
Pt 12.3157 23.1947 21.1121
Au 17.6613 15.1998 13.0954
Pt 11.2659 23.7385 16.6079
Au 14.7629 12.2392 16.278
Pt 20.9681 18.1821 16.6596
Au 13.4918 23.8563 24.2725
Pt 16.7423 19.091 20.0848
Au 16.4406 16.017 3.32637
Pt 22.7416 17.5149 13.483
Au 4.76277 16.1028 10.5566
Pt 6.6794 18.5827 14.8733
Au 21.9856 19.8611 6.3802
Pt 17.2845 13.0617 11.1634
Au 16.1763 26.3109 14.4685
Au 16.2643 25.7211 20.9574
Pt 20.9809 15.4734 9.04228
Au 20.1656 25.5549 17.1152
Pt 14.8639 23.9106 13.7221
Au 10.8181 22.3923 7.28595
Pt 16.4922 21.2078 21.6852
Au 21.1397 14.2605 17.7222
Pt 14.0825 21.7772 22.7306
Au 11.566 25.8747 20.4468
Pt 13.7648 24.143 16.1567
Au 21.6915 21.9273 8.02404
Pt 10.6045 23.093 11.924
Au 12.0181 25.5396 12.0105
Pt 19.6698 23.5134 13.0092
Pt 21.0899 17.5612 11.1101
Pt 18.8977 20.8959 13.5426
Pt 18.6363 17.6622 6.62658
Au 21.7421 24.612 14.8481
Pt 21.742 11.4859 17.8277
Au 7.64582 8.71491 20.5355
Pt 9.89055 12.2437 18.4476
Au 9.29988 8.58669 6.96604
Pt 25.2736 16.8935 12.9387
Au 24.0629 9.4491 11.9065
Pt 19.2367 9.6146 19.1305
Au 26.3693 15.3459 16.7529
Pt 21.6146 17.4208 21.0292
Pt 14.4777 18.9041 21.7461
Pt 21.0562 11.9563 15.0885
Au 23.0699 8.80124 9.46483
Pt 22.6143 19.8658 14.8166
Au 26.2859 17.6901 15.2757
Pt 22.2585 9.22271 16.5173
Au 24.6221 8.8071 21.0146
Pt 18.4627 10.7091 7.43604
Au 19.5182 18.3443 25.8037
Pt 23.1544 17.098 8.98973
Au 17.7644 20.55 25.8413
Pt 23.6995 13.2262 18.5637
Au 11.8511 4.88229 17.5101
Pt 19.6563 10.2487 16.5899
Au 23.5189 22.4242 15.4348
Pt 10.2021 13.4923 15.8816
Au 15.6975 22.3177 25.2122
Pt 23.9124 18.2937 11.1005
Au 23.3005 17.4792 23.1162
Pt 20.0499 7.48596 20.4034
Pt 19.9379 9.76796 22.2321
Pt 12.7145 6.95172 10.1997
Au 18.1372 5.65152 21.1051
Au 18.9653 6.66908 8.07471
Pt 22.4182 13.8062 13.4456
Au 24.7359 15.1623 21.9698
Pt 20.9356 22.0947 10.8845
Au 24.9978 20.1215 16.3331
Pt 24.8966 14.4201 12.4221
Au 18.0051 23.5289 20.9256
Pt 18.9635 12.7122 22.4158
Au 19.3912 15.7315 3.72105
Pt 16.0105 9.49998 20.0257
Au 19.0288 13.2571 26.6252
Pt 22.8045 17.8391 18.5385
Au 8.34915 16.2203 24.4973
Pt 16.8868 16.2856 20.1623
Au 25.0266 8.74634 15.6728
Pt 20.1015 20.4099 15.857
Au 11.7277 7.6767 23.1815
Pt 23.1571 13.0931 21.1453
Au 15.0306 19.6833 26.4767
Pt 15.8684 24.6255 18.5543
Au 19.7207 24.8782 10.7005
Pt 14.8486 19.5258 8.63203
Au 19.2859 23.1876 8.58625
Au 18.1706 18.1498 3.93663
Pt 25.4313 12.8409 14.9461
Au 26.0259 10.3551 13.6645
Pt 16.5715 17.5578 8.41314
Au 27.0362 15.0688 14.1756
Pt 13.4755 19.5997 17.4726
Au 24.5731 17.5081 20.6177
Pt 23.3773 11.6374 9.94791
Au 13.4742 14.7785 26.4383
Pt 16.336 20.3728 12.9381
Au 25.3218 15.5992 7.68817
Pt 14.6298 22.2296 17.8005
Au 26.8032 10.7641 16.2016
Au 20.5091 22.3679 22.0415
Pt 18.3229 23.7861 17.8972
Au 18.1651 22.1751 23.5712
Au 25.0271 19.5274 13.4766
Pt 20.5046 15.8815 13.1474
Au 17.0585 4.26941 15.1346
Pt 20.3484 18.6867 13.7382
Au 5.4319 9.27041 18.9058
