561
Atoms. Timestep: 20673
Pt 18.0705 9.11156 18.9165
Au 25.2917 21.9663 16.6116
Pt 15.1402 20.2905 21.3859
Au 20.5771 25.5101 17.8486
Pt 11.8373 13.0418 20.3581
Pt 8.76768 16.773 20.7272
Au 17.7526 21.5524 5.34395
Pt 17.4604 11.2036 23.046
Au 13.6159 3.09188 13.1722
Pt 14.1783 7.48112 12.7302
Au 23.17 19.0979 14.1134
Pt 22.0088 16.877 21.5914
Au 12.2546 24.2541 16.7841
Pt 10.5336 7.19532 11.644
Pt 23.2239 12.057 14.4647
Au 6.4857 18.8375 21.6704
Au 23.8176 23.0307 12.0057
Pt 18.707 8.42842 12.9522
Au 6.10769 21.1146 14.6013
Pt 22.574 20.6916 19.3282
Au 18.9325 14.4516 26.9688
Pt 11.2962 23.0268 14.5018
Au 5.67985 19.5087 12.4332
Pt 15.3309 18.6157 8.76618
Au 18.1228 4.84985 19.893
Pt 10.5856 18.4317 9.58742
Au 14.4239 17.7115 4.23658
Au 16.5825 2.87521 12.7161
Pt 11.5418 15.6614 21.7547
Au 22.4441 19.7756 22.4398
Pt 7.8903 15.1899 18.7796
Au 23.7543 10.5352 7.40194
Pt 17.5538 15.3802 22.6695
Au 21.4878 5.27359 12.0654
Au 11.3959 20.2155 24.1786
Pt 12.9622 21.8507 20.6625
Pt 19.4859 12.765 21.7915
Pt 20.6649 9.26401 9.97107
Pt 14.5205 13.7285 25.6864
Pt 7.23572 12.8059 20.2699
Pt 18.613 23.4753 18.6515
Pt 19.375 18.3775 17.8952
Au 11.9464 6.4664 21.9117
Pt 12.2781 23.851 12.0929
Au 7.06295 14.5908 22.6917
Pt 10.6128 15.3183 19.0263
Au 19.4518 22.9533 22.7062
Pt 24.3959 12.0255 16.8683
Au 12.9686 7.52408 7.76071
Pt 10.1476 6.45466 16.0271
Au 15.4284 4.27183 19.524
Pt 21.2553 11.43 18.5214
Au 8.25843 19.4185 5.8186
Pt 19.0466 12.9325 16.5627
Au 8.5564 22.1561 19.5249
Pt 12.498 12.337 12.7337
Pt 13.4751 23.6401 9.64696
Pt 9.91265 11.261 16.7718
Au 24.2985 21.4912 14.1816
Au 21.032 8.64984 22.4633
Pt 17.0714 17.6114 11.3344
Au 10.5845 20.2241 4.68306
Pt 14.9912 15.9871 23.1573
Au 7.02605 10.7193 6.47974
Pt 15.9041 20.8965 16.6436
Au 25.2478 17.1541 18.2223
Pt 12.7877 8.0726 10.6788
Au 22.5481 20.3209 7.37459
Pt 11.7018 13.2078 10.2863
Au 20.4248 24.9561 8.84037
Pt 17.4971 16.9282 19.1315
Au 18.3061 9.08632 7.48216
Pt 10.2502 18.0327 22.4866
Au 20.8878 8.87848 19.5148
Pt 17.647 17.2814 8.73171
Au 13.5345 24.2077 19.185
Pt 12.4255 15.5487 13.9933
Au 21.5708 25.4508 15.2509
Pt 10.7651 21.9303 16.9278
Pt 20.3577 12.8554 10.6522
Au 22.8088 24.839 19.9575
Au 19.3178 11.5373 6.29945
Pt 18.9588 16.2938 24.8499
Au 22.5639 18.0717 11.606
Pt 20.3806 16.3215 8.64334
Au 17.6734 16.8473 27.2638
Pt 21.9042 11.5189 8.97687
Au 8.27412 5.65633 17.6588
Pt 8.28732 8.41654 16.3693
Au 11.7875 5.78662 9.55826
Pt 18.0679 9.13192 10.3201
Au 14.6889 25.9028 16.7767
Pt 8.05901 19.4033 8.58214
Au 7.96804 9.41675 8.60581
Pt 16.0333 19.3877 19.0396
Au 25.156 19.9851 18.5558
Pt 16.8031 17.7565 24.5283
Au 6.93424 9.86014 20.9533
Pt 13.1691 20.7913 13.1013
Au 4.41754 9.83886 15.501
Pt 20.399 16.5152 19.4968
Au 6.7361 23.7077 15.3608
Au 21.8182 22.8228 7.86786
Pt 11.9593 16.8737 11.5731
Au 24.2329 22.7677 18.9358
Pt 10.9857 19.4658 12.0179
Au 18.8064 18.7026 5.10802
Pt 21.9848 13.1732 16.5642
Au 23.1789 8.58368 20.9931
Pt 23.6425 17.2005 16.015
Au 5.89322 16.9888 11.3475
Pt 9.35885 14.3275 16.7008
Au 21.1962 14.8891 25.59
Pt 7.476 12.5104 17.5623
Au 24.093 18.3931 20.563
Pt 19.2103 17.4889 22.0919
Au 19.7762 3.78326 17.941
Pt 16.4648 15.9004 16.6567
Au 19.9974 7.15226 8.27872
Au 17.3415 4.66981 10.7569
Pt 7.03573 10.52 15.7922
Au 22.598 25.431 12.6895
Au 24.6542 15.9299 21.6359
Pt 20.6202 9.37536 14.5751
Au 16.5574 22.5604 23.423
Pt 14.6959 25.1868 11.9518
Au 16.9355 26.8498 12.7533
Pt 11.587 9.37269 12.9713
Au 7.63078 6.4533 12.2451
Pt 18.4046 14.9869 9.99992
Au 10.1478 14.4888 5.15263
Au 15.9143 8.85909 24.1166
Pt 13.3086 14.6833 8.91323
Pt 9.65184 10.6907 14.2424
Pt 19.6309 10.2072 16.9638
Pt 20.2255 13.5879 8.17835
Pt 7.66456 11.4325 10.4613
Pt 16.2135 8.75688 16.7598
Pt 23.138 9.58311 13.7239
Pt 21.6251 23.1309 13.7555
Pt 15.5499 5.24486 13.0451
Pt 22.1211 20.8446 12.2895
Pt 14.3902 14.4935 17.386
Au 6.14702 20.6955 19.6736
Au 13.9039 10.2108 6.14104
Pt 16.7436 10.2954 12.3395
Au 8.67481 19.8751 23.5073
Pt 22.68 22.5716 16.2855
Au 3.35268 17.6091 17.1064
Pt 7.86538 16.5974 16.3642
Au 4.22835 19.1336 14.8886
Pt 17.1603 21.7355 11.5752
Au 9.43453 11.809 6.28176
Pt 18.3304 5.72265 13.3796
Au 19.3146 3.54693 12.2474
Pt 13.809 8.71803 15.3529
Au 22.8369 10.5523 23.4488
Pt 19.571 20.7123 11.4426
Au 8.68278 12.7271 23.9955
Pt 9.09463 13.7273 10.0206
Au 20.3918 12.2389 25.9632
Pt 10.9857 20.4533 19.2771
Au 21.249 26.5974 10.767
Pt 5.51476 14.021 18.713
Pt 7.69668 16.7746 9.20749
Au 6.33905 8.29936 14.0479
Au 2.98513 13.0538 18.7861
Pt 14.6638 22.5873 11.9777
Au 8.84475 23.7504 17.3577
Pt 9.94912 11.9339 12.0022
Au 19.2486 23.2993 6.90734
Pt 9.23326 9.43687 11.2891
Au 3.58565 14.7929 16.8108
Pt 13.3317 14.1916 6.38792
Au 14.5177 27.837 11.7491
Pt 14.0523 10.1229 12.661
Au 10.9771 13.4002 25.716
Pt 11.3185 17.8197 20.1036
Au 25.0951 17.4166 13.4841
Pt 20.0578 10.8933 23.6513
Au 25.6017 10.5749 14.3912
Pt 21.1513 20.8797 14.8694
Au 24.646 12.7356 12.2815
Pt 9.89896 5.51546 13.5405
Au 15.8704 20.6418 25.2642
Pt 19.0511 16.6312 12.813
Pt 7.74186 13.3464 12.3562
Au 9.16873 24.6267 14.8397
Au 17.0891 3.98541 17.4179
Pt 13.4161 10.7279 19.8529
Au 22.0385 6.74345 9.88207
Pt 12.4422 18.3529 14.2276
Au 20.2583 24.4938 20.6144
Pt 17.6024 22.8341 16.1306
Au 13.2839 9.57632 24.3833
Pt 14.9919 12.5468 7.64776
Au 11.4855 16.1575 26.2582
Pt 12.8496 17.3376 8.92989
Au 4.66095 10.1033 12.7704
Pt 7.43544 12.7415 8.1829
Au 7.50801 13.533 5.50771
Pt 19.8041 20.3083 22.3353
Au 16.5188 23.8013 6.14088
Pt 13.8421 17.3813 21.2601
Au 6.48426 11.8913 22.6289
Pt 8.13715 12.7111 14.8908
Au 14.9718 23.4191 21.4539
Pt 13.8215 23.8307 14.3019
Pt 14.7295 19.653 6.46789
Au 15.6211 8.43563 7.65491
Au 4.89496 11.4529 19.889
Pt 20.1965 15.1258 22.8594
Au 8.54325 9.98533 23.3383
Pt 20.6901 6.71298 14.214
Au 10.645 8.44341 9.00944
Pt 9.47162 17.5468 7.32096
Au 2.85634 12.2933 15.5806
Pt 10.8035 10.6067 19.4432
Au 18.8759 24.8553 14.4931
Pt 21.6163 15.8793 17.0251
Au 6.03703 16.1965 20.7073
Pt 11.3492 19.357 16.772
Au 8.3538 21.954 7.91855
Pt 24.1452 14.6906 17.2185
Au 24.4736 21.0708 21.1047
Pt 19.6645 21.1925 8.66213
Au 20.5776 6.05715 19.13
Pt 16.9586 13.8239 18.3911
Au 24.6278 10.7513 21.3466
Pt 22.254 14.9364 7.37074
Au 10.996 23.2835 19.3111
Au 7.88398 16.3832 5.38446
Pt 10.8537 20.4573 14.4615
Au 16.1401 24.7056 19.1093
Pt 14.991 23.3336 16.7746
Au 10.1264 6.22039 19.7931
Pt 18.6301 13.3856 24.362
Au 12.0638 3.32944 10.729
Pt 9.73332 20.8284 10.0962
Au 23.0935 15.1834 23.6942
Pt 16.6043 17.4052 6.20579
Au 23.0315 7.49314 18.319
Pt 18.4626 7.85647 15.5633
Au 7.12452 21.1939 10.6879
Pt 21.7643 14.2004 21.0728
Au 13.0018 11.6036 26.4679
Pt 8.28433 10.3396 18.7262
Au 7.69853 22.9774 12.8662
Au 17.3371 13.44 5.42712
Pt 8.28387 18.5781 11.1458
Pt 19.1839 11.1457 8.99504
Pt 5.18976 16.6624 15.2977
Pt 12.4182 19.5678 21.8793
Pt 12.3737 17.3617 23.7384
Pt 17.2713 19.9158 22.977
Pt 12.6213 5.42432 12.2109
Pt 7.33496 10.6733 13.0387
Pt 20.9135 15.6006 11.1757
Pt 14.4368 17.1796 12.6296
Pt 14.121 16.8238 6.77265
Pt 19.1847 10.1897 21.1555
Pt 20.5631 7.75775 17.0631
Au 23.6281 21.5219 9.70374
Au 24.6439 19.8673 11.7637
Pt 21.5951 12.9668 23.5411
Au 17.701 25.1759 8.19647
Pt 13.1456 21.6458 18.0532
Au 22.8995 24.5965 9.98263
Pt 19.6709 18.0446 10.618
Au 14.682 3.90186 10.8402
Pt 10.1972 22.1221 12.3374
Au 14.1207 8.35027 21.6639
Pt 15.2624 6.30841 17.5859
Au 19.4012 27.1019 15.8433
Pt 11.9626 14.8113 16.5958
Au 10.8195 3.13135 13.0611
Pt 15.9542 13.3599 23.4852
Au 25.5574 14.5468 19.6047
Pt 20.3832 18.8695 13.3056
Au 24.0687 24.1837 14.6876
Pt 16.7188 15.05 12.1317
Au 24.7995 16.0423 7.96102
Pt 13.413 19.006 10.8759
Pt 15.8989 15.1373 7.62953
Au 5.73265 9.6205 18.0985
Au 18.5644 8.59732 23.5862
Pt 10.8753 8.90916 15.6542
Au 5.18691 12.5402 6.61918
Pt 12.8668 20.0795 8.50736
Au 6.01239 15.0876 7.19007
Pt 9.06445 8.15337 13.7408
Au 6.56047 8.88569 11.0609
Pt 10.7922 13.2382 14.6519
Au 9.69387 4.69553 11.0087
Pt 16.7363 7.14432 11.6635
Au 13.8031 21.5934 23.3656
Pt 18.0483 10.2879 14.849
Au 4.75506 13.8005 21.2702
Pt 14.523 11.3676 17.2445
Au 18.5678 21.5285 24.9148
Pt 5.04427 12.1311 16.9687
Au 14.5012 18.9052 23.7412
Pt 17.1642 11.1721 17.2331
Au 14.752 12.4988 4.8942
Pt 22.7544 13.7581 10.0155
Pt 6.56205 14.5074 10.1288
Au 18.1778 3.34362 14.8851
Au 4.6926 16.4068 9.05196
Pt 16.6878 15.149 25.299
Au 11.9665 12.1941 5.31086
Pt 8.42023 15.9356 11.6094
Au 26.0875 15.0478 12.789
Pt 23.0627 15.7596 19.3545
Au 4.57349 20.0266 17.4961
Pt 19.6268 10.8124 12.2239
Au 23.6628 10.1694 18.8613
Pt 16.0737 10.7878 19.5473
Au 22.384 19.2671 25.2367
Pt 20.4453 11.9808 14.5394
Au 12.0516 4.35288 15.132
Pt 16.7375 5.84548 15.4732
Au 16.0611 26.5914 9.95124
Pt 15.3104 8.9669 10.5245
Au 20.3993 17.6232 26.6736
Pt 15.1383 16.3687 10.0484
Au 24.1487 18.8467 9.14047
Pt 13.4393 19.3373 19.4548
Pt 20.6558 20.696 17.5287
Au 21.2765 21.5305 24.2234
Au 16.1716 6.87692 20.0767
Pt 12.3452 17.1414 17.7468
Au 23.2681 5.59637 14.1715
Pt 8.38837 20.2132 13.1214
Au 23.927 17.8028 23.465
Pt 20.1321 23.1673 16.2182
Au 13.4387 16.8788 28.0424
Pt 10.575 16.7661 15.6537
Au 8.51303 7.01721 9.83064
Pt 10.5489 15.8186 9.56785
Au 24.2462 13.2802 7.71572
Pt 16.4006 10.8397 9.07815
Au 14.6942 6.35113 9.77
Pt 12.5346 21.3834 6.26399
Au 12.876 14.2489 27.5864
Pt 17.6915 12.3934 10.9813
Au 25.9625 13.2143 14.8439
Pt 18.6892 23.2767 10.0414
Au 23.7006 14.7809 14.589
Pt 15.2391 12.6924 12.7111
Pt 15.7656 13.8004 9.95907
Au 8.9129 19.5377 20.623
Au 21.8294 11.2767 21.1357
Pt 22.3387 10.3455 16.368
Au 11.3002 9.84303 6.84069
Pt 14.5605 13.0341 19.528
Au 13.2347 20.0474 4.04565
Pt 17.1262 22.0751 8.1932
Au 12.7343 18.7322 26.0672
Pt 21.2921 17.2814 24.0258
Au 14.2227 26.7043 14.1798
Pt 20.5214 14.7265 14.9465
Au 9.96379 18.07 25.1511
Pt 15.1323 14.9928 14.1696
Au 7.56016 7.73914 19.1467
Pt 18.7436 11.982 19.2639
Au 25.3713 14.4016 10.0816
Pt 23.3265 12.9576 19.2643
Au 13.1132 5.81552 19.4845
Pt 12.0754 8.305 19.939
Au 18.4742 26.14 19.4201
Pt 15.4466 11.2735 25.0296
Pt 9.26841 14.2663 21.2863
Pt 15.0504 19.3717 14.5469
Pt 22.4777 18.1584 18.3364
Pt 12.1416 12.4783 17.7188
Pt 23.23 20.0989 16.6779
Pt 21.22 18.415 15.97
Pt 9.91464 17.4524 13.2194
Pt 23.547 15.4802 11.9749
Au 19.9728 26.8677 13.135
Pt 13.2008 12.2347 23.8968
Au 20.4153 20.3787 26.5605
Pt 16.2119 13.2052 15.8678
Au 3.97507 14.8184 11.3736
Pt 10.123 8.30932 18.1642
Au 12.1426 26.5452 11.9952
Pt 19.3282 5.46334 16.104
Au 17.5882 24.4968 21.4195
Pt 14.1779 11.8307 10.4308
Au 8.65829 21.8444 15.2943
Pt 11.0349 13.1009 22.8418
Au 17.4738 21.8523 20.9382
Pt 19.2973 14.0221 12.6225
Au 7.56969 5.94429 14.9915
Pt 17.8145 19.5715 13.3529
Au 4.48772 18.3234 19.6169
Pt 18.6656 20.2635 15.7024
Pt 8.69196 15.2344 14.2189
Pt 10.7885 13.6517 7.72988
Au 10.4143 21.5555 21.8179
Au 10.806 10.9055 24.6269
Pt 22.701 7.83528 15.5655
Au 12.4996 24.0766 7.00631
Pt 15.5075 22.0189 19.1498
Au 20.2718 20.8437 6.06724
Pt 16.6234 17.2594 14.1024
Au 13.8366 6.98085 23.9042
Pt 12.2204 18.5662 6.2479
Au 9.37604 3.90492 15.633
Pt 17.6214 19.7896 9.8525
Au 24.6299 6.31052 16.4517
Pt 16.0441 21.9335 14.127
Au 14.4913 5.46198 21.8082
Pt 19.3697 18.9505 24.4722
Au 11.6977 25.6993 14.4878
Pt 10.3914 20.1109 7.43545
Au 17.3955 6.77321 8.97385
Pt 12.5397 11.9356 8.05476
Au 22.5741 17.6674 7.20284
Pt 19.9969 21.5931 20.0573
Pt 21.4835 23.0722 18.548
Au 11.0589 4.66173 17.7886
Au 18.1211 16.0076 4.49348
Pt 15.4068 10.8541 14.8153
Au 26.0701 15.9911 15.681
Pt 21.5586 19.6432 9.72325
Au 21.9854 12.3171 6.38298
Pt 15.5783 19.6962 12.0197
Au 9.83256 24.93 12.2791
Pt 16.8068 18.4508 16.6145
Au 3.52179 15.7287 19.4585
Pt 13.6323 14.6483 11.6634
Au 5.29403 12.3216 11.3204
Pt 21.8299 16.6262 13.8415
Au 24.9172 9.13662 16.6667
Pt 18.9866 15.5075 17.3281
Au 5.91356 7.38096 16.6636
Pt 18.0548 20.9414 18.2187
Au 11.0083 8.46367 23.3542
Pt 17.6176 13.0666 8.08969
Au 6.6355 21.8686 17.2885
Pt 17.9757 6.71 17.9817
Pt 18.6621 14.8102 20.3554
Au 13.3733 26.3831 9.63057
Au 4.43988 13.5028 8.94899
Pt 20.0811 24.3547 12.0756
Au 16.6807 27.3378 15.3524
Pt 13.8412 13.9068 21.9079
Au 23.331 9.12582 9.73517
Pt 9.91269 11.2986 8.96853
Au 10.1968 22.5931 6.06968
Pt 11.8991 10.5712 21.9998
Au 17.9256 19.4365 26.6674
Pt 17.9354 14.943 14.7381
Au 9.51418 8.68481 21.0459
Pt 16.0741 23.828 9.95869
Au 7.13947 18.2971 18.9192
Pt 11.5117 16.0645 6.97333
Au 7.47485 21.4932 21.8692
Pt 16.7535 9.13378 21.4439
Au 6.3401 17.8617 7.12703
Pt 18.9903 17.389 15.3459
Au 7.80442 17.1892 23.3189
Pt 18.9325 22.1939 13.6865
Au 23.3413 24.8906 17.3234
Pt 17.6425 12.4981 13.7634
Au 18.1184 10.6351 25.5706
Au 18.8964 7.32731 20.9906
Pt 22.3217 11.0758 11.6314
Au 8.87331 23.389 10.2159
Pt 16.8246 12.8911 21.0497
Au 19.9485 4.74033 9.76607
Pt 13.5928 13.1859 15.113
Au 21.2761 22.6017 10.5209
Pt 21.9065 13.5396 12.7907
Au 9.8117 15.4393 23.9588
Pt 9.60697 17.6676 18.0761
Au 16.6917 6.67514 22.7308
Pt 20.6435 13.9246 18.7397
Au 14.9044 25.1542 7.77711
Pt 16.4743 17.7634 21.6341
Pt 16.2007 8.18632 14.1318
Pt 19.4181 6.85873 11.0452
Pt 16.179 24.7557 14.6117
Au 5.38736 12.3948 14.2413
Pt 7.17978 17.6214 13.753
Au 14.9695 21.9297 4.93427
Pt 11.9351 7.03528 14.1557
Au 14.8295 11.0444 22.1648
Pt 20.9014 18.9574 20.3143
Au 26.7104 13.8021 17.332
Pt 14.1542 6.01804 15.1445
Au 3.86558 17.1771 13.0428
Pt 9.30349 11.5381 21.4022
Pt 6.56386 18.9287 16.2513
Pt 12.6552 14.8224 24.1643
Au 20.5265 16.7124 5.78981
Pt 17.3074 24.1888 12.3279
Au 12.5198 15.8364 4.43459
Pt 13.143 15.3619 19.6269
Au 25.1482 7.81388 14.2206
Pt 12.35 21.502 10.7304
Au 11.0866 24.9177 9.74297
Pt 17.4273 19.6843 7.23098
Au 26.8499 11.1656 16.7253
Pt 12.3963 10.9857 15.1253
Au 13.7629 4.11951 17.3075
Pt 6.34968 14.3951 16.0209
Au 24.6084 11.6113 9.80242
Pt 8.97673 18.8975 15.3717
Au 25.8635 11.8664 19.178
Pt 11.8112 10.5207 10.6072
Au 21.1299 9.57773 7.29713
Pt 22.8493 16.4196 9.57373
Pt 14.9036 17.0541 18.56
Pt 15.8035 15.3514 20.5204
Au 15.3866 3.43953 15.2079
Au 16.5967 10.8477 6.27308
Pt 14.523 8.56381 18.7376
Au 20.8869 3.98987 14.4852
Pt 15.1053 21.1035 9.788
Au 18.5996 26.1262 10.6823
Pt 13.3294 21.4533 15.5372
Au 3.13743 10.5648 17.809
Pt 14.1502 16.8715 15.6882
Au 5.5411 10.873 8.89317
Pt 18.2868 19.2637 20.3262
Au 5.97993 15.0398 13.2753
Pt 12.5462 7.01546 17.1388
Au 20.1115 14.0658 5.41102
Pt 5.63737 16.4978 17.8449
Au 16.8734 12.7702 26.7196
Pt 18.4663 15.4297 7.08774
Au 24.0679 13.2095 21.9902
Pt 9.60598 12.8964 18.9637
Au 21.9991 5.31733 16.7273
Pt 14.2801 16.4462 25.5863
Au 10.2938 17.453 4.71301
Pt 10.6102 14.62 12.2904
Au 15.4027 18.428 26.9046
Au 3.09432 12.4101 12.826
Pt 8.7072 20.2031 17.6847
Au 24.9591 9.8045 11.8347
Pt 12.4548 9.71892 17.5314
Au 17.6066 25.4198 16.9618
Pt 19.8884 18.6878 7.7542
Au 5.66893 19.0197 9.60752
Pt 8.68497 15.006 7.55892
Au 15.5541 15.1691 27.7751
Pt 21.3853 8.36255 12.2101
Au 25.5658 19.0687 15.8794
Pt 11.1878 22.4292 8.58584
Au 3.41748 14.6874 14.1611
Au 22.1356 22.5186 21.4815
Pt 14.5773 22.3212 7.58239
Au 16.3206 19.5518 4.30234
Au 15.3912 15.2281 4.78311
Pt 13.6435 9.82708 8.77799
Au 23.7656 7.24833 11.9788
Pt 13.9715 19.1558 16.9443
Au 25.3572 17.0746 10.7393
