561
Atoms. Timestep: 20842
Pt 19.9729 15.6351 13.1576
Au 16.2601 6.88882 7.97223
Pt 10.7797 17.4398 10.3834
Au 15.8164 22.8733 9.59653
Pt 11.9427 18.9114 21.9885
Pt 10.3642 23.1046 18.2427
Au 16.8299 25.1947 22.6662
Pt 16.3969 21.4469 12.025
Au 15.9862 21.4996 4.94274
Pt 12.8007 11.6912 8.00789
Au 8.49152 12.1323 21.8386
Pt 15.1635 13.0348 24.0795
Au 15.9787 17.3844 3.51361
Pt 21.9741 14.0756 22.3402
Pt 19.9405 9.65352 17.9072
Au 7.28004 6.81533 15.1129
Au 21.4453 7.85658 19.266
Pt 14.1327 13.15 12.0219
Au 23.2618 6.25237 20.4509
Pt 20.309 19.6525 17.0656
Au 15.8425 6.30518 23.0139
Pt 14.4007 10.886 13.6842
Au 18.1425 26.0082 17.4527
Pt 13.8391 19.3918 23.7466
Au 14.4505 15.1736 25.4719
Pt 16.6728 12.3782 12.8616
Au 15.0167 8.95842 6.54899
Au 8.93756 25.4958 13.9092
Pt 14.7118 22.8647 20.6789
Au 4.38872 19.9156 15.1959
Pt 5.8306 15.7798 16.3494
Au 3.58963 12.1055 13.9369
Pt 15.938 19.1277 19.081
Au 24.7681 20.7626 15.8145
Au 7.63944 23.5071 18.21
Pt 25.1145 13.6215 13.6223
Pt 10.0143 6.13538 15.1681
Pt 10.3258 13.7287 14.03
Pt 15.6322 14.8063 13.765
Pt 9.30917 8.20933 13.574
Pt 17.4291 12.3289 25.1529
Pt 14.5916 11.0613 16.4111
Au 5.82366 18.3919 19.8094
Pt 13.5905 11.2602 22.8461
Au 25.0726 18.5842 13.9924
Pt 9.44866 15.9605 8.22208
Au 6.92452 10.2221 20.5109
Pt 19.7443 9.42666 20.9129
Au 20.234 20.6161 24.5204
Pt 9.78892 11.9908 8.76253
Au 19.5251 21.6838 21.9409
Pt 25.0528 10.8754 16.7583
Au 12.6593 3.11994 11.3401
Pt 7.55556 12.3693 10.4086
Au 22.6323 17.3567 7.6088
Pt 10.9102 20.2771 18.1847
Pt 10.4879 11.3084 20.1906
Pt 9.82809 10.7033 14.5475
Au 17.7202 2.65873 19.2475
Au 9.22635 6.87079 20.1091
Pt 13.6753 13.3274 17.648
Au 16.1801 12.4102 5.15862
Pt 20.3296 18.2096 13.7308
Au 21.3819 14.6392 25.9651
Pt 13.5495 5.58408 11.9911
Au 21.3975 4.99221 16.1682
Pt 13.774 26.4596 16.5651
Au 22.7513 14.9143 6.33497
Pt 10.3139 10.6499 17.5354
Au 16.4898 17.0602 26.3022
Pt 8.3806 16.2749 10.7661
Au 11.1527 17.5727 3.50394
Pt 14.2523 23.172 16.2093
Au 17.6755 9.32911 6.72398
Pt 8.19421 17.3009 16.0605
Au 19.2823 13.3141 26.9207
Pt 13.5437 24.2887 9.86081
Au 23.6956 23.3325 15.6038
Pt 20.6442 11.0472 10.9669
Pt 14.8278 8.7466 15.2829
Au 26.2826 11.6833 11.6628
Au 15.1754 2.73598 18.7365
Pt 15.8437 17.6385 23.6263
Au 3.86476 11.8842 11.1244
Pt 21.4466 14.9373 8.61986
Au 19.0333 4.46256 20.5866
Pt 15.4773 21.7378 18.4803
Au 9.41913 7.09675 10.768
Pt 21.3059 14.8062 17.631
Au 9.90575 27.8032 14.916
Pt 21.9302 13.4447 10.6991
Au 20.9056 17.6404 25.0064
Pt 17.4225 13.7259 20.0213
Au 5.24655 12.5637 8.8346
Pt 17.8878 20.6926 17.6459
Au 16.9685 13.6179 9.95277
Pt 13.3414 21.6405 22.5345
Au 21.7096 21.2312 19.1996
Pt 19.3328 17.7851 11.2831
Au 23.1222 11.5949 22.0475
Pt 22.3561 16.4842 14.3843
Au 10.2378 4.39241 11.6299
Au 6.04523 21.6385 13.8389
Pt 8.37271 18.8327 10.1396
Au 27.2339 9.51057 12.8947
Pt 12.4106 9.09196 16.7063
Au 18.126 14.4212 14.5218
Pt 21.8113 16.2023 11.5426
Au 19.1235 24.3972 21.5887
Pt 13.683 20.2996 20.2156
Au 17.3665 11.743 27.7841
Pt 14.1016 20.0908 6.79036
Au 3.53418 14.7428 15.2034
Pt 23.6311 16.0698 9.78335
Au 20.0166 21.7041 7.54711
Pt 7.61743 16.6566 18.5785
Au 12.1753 24.1377 7.52741
Pt 15.2929 9.09764 18.0106
Au 27.64 14.6215 14.7294
Au 10.3939 16.496 22.8727
Pt 21.1867 23.221 14.6473
Au 24.2459 8.38734 19.2549
Au 9.70587 19.0497 20.3929
Pt 20.0626 12.6785 24.3237
Au 20.9068 6.33287 21.6114
Pt 16.1519 13.9448 7.37546
Au 22.1201 20.9546 22.0187
Pt 12.2884 24.9505 12.1885
Au 15.5089 27.7417 14.8372
Pt 13.6215 19.7165 17.6065
Au 3.55143 14.3704 12.3822
Au 26.1537 15.3308 20.3298
Pt 19.227 6.90103 17.8341
Pt 11.3271 9.9212 9.32178
Pt 12.4579 7.7929 10.5314
Pt 24.8127 8.23038 16.6161
Pt 20.8735 10.119 15.2715
Pt 11.5107 20.7586 13.5269
Pt 18.2748 19.0027 15.5155
Pt 23.0149 19.2963 17.9118
Pt 19.6129 15.1909 10.4598
Pt 17.489 10.8374 17.1331
Pt 13.2136 16.0626 4.4702
Au 19.1376 10.3428 25.963
Au 5.11722 9.99341 12.9136
Pt 6.11209 17.2215 11.7522
Au 18.4324 20.6287 5.76811
Pt 14.1674 13.4977 9.25522
Au 11.3365 27.4208 17.0917
Pt 7.28281 19.5171 12.5623
Au 9.39052 15.4569 4.21623
Pt 16.4117 25.785 13.2426
Au 11.6136 2.37087 15.6266
Pt 10.7608 13.9206 21.1552
Au 23.3634 6.246 17.7048
Pt 8.78611 21.4296 19.5223
Au 27.7391 11.7865 16.8138
Pt 7.16662 13.8616 17.6555
Au 18.512 22.1587 9.84732
Pt 21.4119 7.73162 16.4766
Au 27.2765 14.1985 12.0888
Pt 14.4504 14.6525 19.9164
Au 4.94364 15.181 7.872
Pt 10.4434 15.7695 12.3809
Pt 16.1726 18.8969 5.75679
Au 13.6814 11.2885 5.55146
Au 20.4866 25.3195 16.1952
Pt 20.3315 11.9197 21.7606
Au 4.92487 10.3112 15.671
Pt 22.9924 11.8681 15.1518
Au 21.9537 11.6592 8.48236
Pt 17.5105 23.8888 11.8128
Au 3.62055 16.9779 13.0891
Pt 22.1612 21.3883 16.4166
Au 18.3399 26.8155 14.7442
Pt 16.0228 10.5214 23.388
Au 12.501 3.04299 18.2786
Pt 11.2844 6.82853 12.6521
Au 7.82381 17.3091 21.4305
Pt 12.5047 16.0628 21.1012
Au 20.7827 7.47822 13.8464
Pt 13.7065 18.7396 4.46739
Au 16.7599 9.37018 9.13934
Pt 16.1077 19.4774 13.914
Au 14.8063 8.19596 24.7091
Pt 9.73125 12.1338 11.8924
Pt 12.9953 21.8515 8.94614
Au 26.6169 9.63465 18.3532
Au 21.4909 10.4222 23.9642
Pt 16.148 18.0081 11.6047
Au 21.4951 23.3933 20.7131
Pt 6.6108 16.7673 9.05728
Au 10.4261 25.8144 19.1182
Pt 12.5935 19.1522 8.65795
Au 24.8553 18.3413 10.9772
Pt 12.0352 9.42123 14.025
Au 9.49288 23.9079 20.7095
Pt 14.8121 23.8122 12.1179
Au 13.2048 20.5161 25.9668
Pt 13.5197 17.6603 10.6606
Au 11.4369 13.6926 4.68883
Pt 17.4635 15.3786 11.9272
Au 13.9178 13.3163 3.806
Pt 8.33515 11.864 18.9205
Au 18.483 17.6187 4.9909
Pt 13.8012 13.2098 14.8097
Au 8.54209 9.55028 9.79355
Pt 14.965 15.5835 11.308
Pt 20.9649 12.0724 17.1379
Au 12.5221 12.9285 25.2011
Au 13.6924 10.5223 25.4141
Pt 23.319 9.14299 14.7621
Au 3.35089 12.3273 16.6299
Pt 14.5149 15.5613 16.0303
Au 21.3631 22.1666 9.84891
Pt 19.753 14.518 20.9584
Au 20.3494 25.3679 13.2345
Pt 17.7056 20.2417 23.5295
Au 22.7427 18.6305 23.2836
Pt 8.55783 14.296 19.7791
Au 6.47587 8.52305 17.1366
Pt 25.2393 10.8951 14.1547
Au 16.2075 4.42552 20.9275
Pt 18.8956 15.4973 18.4501
Au 22.4255 20.1624 8.2652
Pt 21.1772 16.6008 22.3612
Au 24.5659 10.9369 19.7883
Pt 22.5474 14.164 13.1562
Au 18.1266 11.9952 7.1721
Pt 11.9873 11.7249 15.9015
Au 20.0481 8.20387 23.3664
Au 9.98282 25.4057 8.5842
Pt 17.895 13.1803 22.6762
Au 13.6573 5.68465 21.5281
Pt 18.6733 10.542 23.331
Au 14.7651 4.94163 9.61047
Pt 14.3227 21.6326 13.8748
Au 13.2885 21.4743 4.45779
Pt 18.6699 7.05562 20.2953
Au 24.6722 14.1077 22.9012
Pt 15.4907 11.414 7.7121
Au 12.887 22.9239 24.889
Pt 16.7319 7.12093 16.6433
Au 21.1492 5.1481 19.0053
Pt 19.7129 15.1392 23.8416
Au 15.3052 3.10812 11.6266
Pt 20.4263 20.693 14.5495
Au 7.62355 23.5185 12.5378
Au 4.57776 14.0647 18.2238
Pt 18.6848 8.76089 15.7493
Pt 7.85284 12.2567 14.2132
Pt 17.1954 8.58911 21.9291
Pt 15.4174 4.60305 16.6814
Pt 19.4663 22.4488 12.6273
Pt 11.492 25.695 14.8173
Pt 17.423 16.711 9.56751
Pt 12.122 15.5629 18.5259
Pt 16.1456 14.4995 17.8553
Pt 21.8558 9.6573 12.7707
Pt 13.2014 10.2204 11.4241
Pt 16.9499 4.70306 14.5693
Pt 19.5714 19.7419 19.801
Au 10.8676 11.5548 6.18886
Au 10.2076 4.23389 17.231
Pt 9.96329 18.4282 8.00734
Au 13.8069 17.7735 26.0108
Pt 19.043 9.71894 12.985
Au 17.8614 21.4886 25.8645
Pt 9.47927 8.56854 16.2133
Au 18.4182 6.05673 22.7618
Pt 20.0302 19.032 22.4179
Au 19.9698 25.0444 19.0489
Pt 16.8648 16.5263 6.87078
Au 16.2855 2.05552 14.0343
Pt 14.5765 17.832 21.1905
Au 13.5563 17.5101 2.03493
Pt 15.1887 7.50585 10.4159
Au 9.21649 25.5454 16.7204
Pt 23.4224 11.7807 12.2332
Au 10.7791 20.2037 4.39035
Pt 12.4442 7.04408 14.9724
Au 23.8321 13.676 8.39218
Pt 9.58241 15.2362 17.452
Pt 17.063 15.0277 24.5333
Au 20.4652 8.06816 10.9555
Au 9.35736 19.0937 23.1124
Pt 16.1314 5.73574 12.2382
Au 20.5877 18.9978 6.58365
Pt 18.4206 19.8559 12.6886
Au 7.27227 18.6669 7.40039
Pt 12.9628 12.5181 20.4943
Au 19.66 9.99055 8.65938
Pt 13.5561 14.183 6.53434
Au 22.0417 23.7305 17.8559
Pt 17.6127 9.14349 19.1289
Au 23.3243 6.42607 14.9026
Pt 20.9341 17.4815 18.2844
Au 10.1758 13.8851 23.8443
Pt 8.91619 21.3941 13.9905
Au 24.1711 21.9823 18.1439
Pt 14.3625 3.91742 14.0634
Au 14.977 25.7279 20.7841
Pt 12.8096 4.72017 16.2791
Au 24.0032 16.5217 21.8499
Pt 15.6932 20.8858 16.0826
Pt 15.583 15.1637 5.03659
Au 14.254 24.2194 22.9588
Au 11.2175 20.9602 23.9835
Pt 11.76 21.3173 6.69769
Au 11.9933 15.1478 2.4233
Pt 11.9274 21.493 16.1299
Au 25.499 7.77472 13.9597
Pt 7.21726 9.42236 14.5828
Au 7.28364 20.0628 21.4339
Pt 23.06 16.7861 16.9521
Au 3.53846 17.424 15.8675
Pt 25.6268 13.3099 16.0956
Au 5.5282 11.3451 18.2087
Pt 17.1583 7.64341 13.866
Au 5.66281 19.1961 9.83529
Pt 24.7993 15.1276 17.9835
Au 19.1307 3.32878 14.7477
Pt 20.9199 20.3223 11.8854
Au 17.5809 8.17596 24.5639
Pt 15.1724 15.2624 22.4239
Au 16.2953 10.016 26.1089
Pt 15.0441 10.1081 20.527
Pt 25.143 16.0095 15.1992
Au 10.936 23.3571 10.0124
Au 9.07995 20.5364 6.43077
Pt 12.5609 17.3403 16.2817
Au 17.0566 23.975 19.7066
Pt 12.2261 18.2082 19.4268
Au 24.7279 13.8701 10.9271
Pt 20.9886 12.071 13.3726
Au 22.9096 12.8724 24.5396
Pt 13.347 7.80649 19.5421
Au 10.8315 2.1022 13.0355
Pt 16.4458 20.8009 7.83251
Au 6.95996 7.95156 12.1238
Pt 17.2123 23.2789 17.0592
Au 23.4184 20.6788 10.9095
Pt 20.0649 17.1973 8.70568
Au 13.5152 6.95674 8.05615
Pt 14.9033 6.30184 14.5829
Au 9.11131 21.8057 22.4261
Pt 14.0577 25.3342 14.2532
Au 17.7193 15.8658 22.0736
Pt 21.5359 13.1738 19.6803
Pt 16.8169 22.6394 22.2535
Au 26.2537 12.7844 18.8458
Au 12.1609 8.98999 23.7385
Pt 19.2039 11.8493 19.2048
Au 7.42978 11.3329 7.76874
Pt 15.4818 18.3781 8.5987
Au 18.7894 7.45328 8.75992
Pt 17.5001 11.1182 20.9827
Au 5.99737 21.0509 19.2306
Pt 10.961 8.66287 19.1615
Au 6.28873 21.5756 11.0754
Pt 5.95116 18.3609 17.0057
Au 16.8028 14.4185 27.1268
Pt 10.15 23.402 15.4509
Au 22.4088 8.79595 21.7268
Pt 20.6764 14.0202 15.2025
Au 9.43851 9.28149 21.5602
Pt 19.9415 19.8002 9.42844
Au 15.7109 25.9334 10.5574
Pt 10.0524 16.3887 20.0972
Au 17.518 19.6572 3.47239
Pt 7.86275 10.4222 12.2733
Pt 19.7569 22.5375 16.7388
Pt 18.4245 17.5738 23.9647
Pt 8.03886 14.7942 15.1625
Pt 14.0581 6.93285 17.1579
Pt 7.62676 10.9605 16.5956
Pt 15.3607 11.4521 10.4129
Pt 11.4359 13.9959 8.0549
Pt 8.05184 19.338 18.1368
Au 21.405 11.7512 26.4244
Pt 10.2549 17.7477 17.7092
Au 17.5036 5.37172 10.0288
Pt 5.8827 14.6394 10.7632
Au 10.7583 7.41341 8.39267
Pt 19.0792 13.1522 12.0791
Au 20.0635 24.4208 10.7093
Pt 12.449 23.2902 14.2552
Au 11.265 21.5403 20.7377
Pt 12.8357 22.1643 11.6403
Au 6.36541 13.4167 6.39622
Pt 8.16499 16.8952 13.4205
Au 27.4962 17.0722 15.7953
Pt 22.7388 9.87954 17.3802
Au 25.3108 18.3284 16.7782
Pt 14.0332 8.04928 12.7935
Au 7.39371 15.9864 6.40406
Pt 16.2702 12.904 15.7124
Pt 17.1177 5.27553 18.5553
Pt 12.0107 11.9908 13.1412
Au 27.0901 9.40551 15.6062
Au 19.0304 5.84201 12.5013
Pt 19.5026 17.1534 20.4355
Au 4.21383 16.7438 18.4015
Pt 10.3231 23.2484 12.691
Au 23.0889 7.3238 12.2547
Pt 8.90783 21.4403 16.6974
Au 18.1883 14.4964 5.34085
Pt 7.51984 19.6661 15.2627
Au 7.46056 23.556 15.3798
Pt 15.4194 12.6898 21.5038
Au 24.4097 11.3238 9.71458
Pt 23.2161 14.3525 15.8154
Au 12.7571 28.0827 14.6475
Pt 10.4041 16.4991 14.9508
Au 19.0268 16.0593 26.3643
Pt 8.09692 14.2746 12.4132
Au 8.18439 23.5304 9.82509
Pt 22.0443 18.3349 10.1357
Au 3.96696 19.5911 17.9495
Pt 14.739 20.3562 10.0959
Pt 12.3069 16.5131 8.33886
Au 8.35235 5.68219 12.9464
Au 15.0529 20.0264 2.67707
Pt 19.5936 12.7769 9.29754
Au 27.6378 12.0033 14.0998
Pt 10.3209 19.2714 15.4756
Au 17.6958 26.4409 20.2631
Pt 14.1514 5.15551 18.9767
Au 9.15338 17.9181 5.41262
Pt 18.1808 18.0641 18.0505
Au 18.646 23.1628 24.0398
Pt 12.9692 10.7533 18.6119
Au 9.32502 3.67234 14.6036
Pt 24.5855 9.4757 12.0501
Au 17.4272 23.0932 7.17419
Pt 11.0793 13.1608 18.4692
Au 26.9131 16.7455 13.0808
Pt 23.469 12.6508 17.8877
Au 8.09443 14.7895 22.3029
Pt 12.895 22.2518 18.5108
Au 7.03821 22.8386 20.9157
Pt 22.7694 18.5457 12.659
Pt 22.5147 18.9369 15.3243
Au 11.1367 27.3392 12.5612
Au 9.49982 9.54838 7.26071
Pt 11.9538 12.4135 10.4545
Au 4.6006 19.5153 12.4172
Pt 24.361 16.1277 12.5652
Au 17.8518 3.47726 12.2669
Pt 15.7109 11.9481 18.7936
Au 14.3828 16.9805 18.3707
Pt 18.6405 14.8608 7.96683
Au 14.9577 12.5203 26.7108
Pt 14.1869 17.1677 6.56274
Au 17.8376 24.8926 9.2199
Pt 11.833 4.48949 13.8211
Au 23.127 21.1802 13.6768
Pt 11.3033 6.73015 17.4632
Au 6.08408 21.4914 16.6691
Pt 14.8793 15.8575 8.71556
Au 18.3905 26.4255 11.6472
Pt 13.93 19.5805 12.3845
Au 20.3755 16.1338 6.20174
Pt 11.6243 19.8784 11.0096
Au 5.69082 13.0133 15.5438
Pt 18.1498 18.6932 7.67189
Au 22.0835 18.546 20.5546
Au 17.1026 2.54856 16.5736
Pt 16.1071 9.57794 12.1051
Au 15.439 22.0282 24.4607
Pt 19.2707 22.4854 19.2782
Au 3.31263 14.1905 9.74986
Pt 12.0775 17.8354 13.2211
Au 9.11463 13.6888 6.428
Pt 11.8055 18.4947 6.1853
Au 11.5155 5.3236 19.6732
Pt 14.6734 24.4738 18.3925
Au 9.63526 22.9937 7.45721
Pt 18.8565 11.8296 14.8746
Au 12.0278 26.4281 10.019
Pt 21.8289 10.5904 19.711
Pt 17.8037 7.87863 11.2377
Pt 17.9653 21.5539 14.8125
Pt 14.6173 17.2425 13.8205
Au 26.9681 17.0459 18.4511
Pt 12.3939 15.1022 10.6418
Au 11.4537 7.27536 21.7019
Pt 5.81608 15.2044 13.611
Au 16.6307 16.4778 19.7316
Pt 16.1708 23.3125 14.3073
Au 15.3459 25.0489 7.98741
Pt 9.47125 12.853 16.3669
Au 10.9454 11.4509 22.9815
Pt 22.2611 15.7927 19.9127
Pt 17.3038 21.0842 20.296
Pt 16.8097 10.2923 14.5991
Au 18.6576 18.9518 26.152
Pt 15.6449 18.2193 16.3128
Au 14.4907 22.7903 6.83288
Pt 5.86192 17.8021 14.3683
Au 4.04428 16.7408 10.2305
Pt 10.365 20.8475 8.93444
Au 22.1205 23.2151 12.1857
Pt 12.1164 24.5893 17.181
Au 11.9518 5.29177 9.72682
Pt 8.47179 9.13286 18.7148
Au 5.90915 10.2241 10.2895
Pt 11.1146 15.9283 6.11781
Au 14.3041 2.12377 16.1735
Pt 9.84951 14.1885 10.2289
Au 24.4997 17.5224 19.3907
Pt 12.8127 15.2086 13.4056
Au 8.4711 6.44196 17.5719
Pt 18.5355 24.1622 14.7284
Pt 16.0979 25.3707 15.9975
Pt 5.9116 12.6249 12.5865
Au 6.21397 12.8993 20.3762
Au 7.59854 21.0961 8.70024
Pt 13.3823 19.4464 15.0401
Au 14.8547 15.2376 2.34232
Pt 12.8359 14.0368 22.8415
Au 15.7473 26.9839 18.3492
Pt 11.8665 14.5802 16.0481
Au 12.2566 9.15469 6.79423
Pt 22.5962 9.55695 10.2715
Au 22.991 15.8522 24.2687
Pt 12.3892 24.184 20.1776
Au 20.5409 13.2848 6.62703
Pt 9.75504 18.8248 12.7066
Au 13.4403 1.59276 13.538
Pt 17.4708 18.5568 21.4139
Au 19.0507 6.02043 15.3374
Pt 7.55532 14.2422 8.65314
Au 27.5338 14.7033 17.4305
Pt 15.5506 20.2523 22.0656
Au 11.7339 15.6199 25.2566
Pt 18.5902 13.3727 17.0901
Au 26.2246 16.11 10.4929
Pt 10.5504 9.59578 11.7814
Au 24.1462 20.213 20.2178
Au 24.0661 13.7233 20.3629
Pt 18.0159 11.0198 10.7745
Au 9.57787 25.5079 11.2602
Pt 17.2962 16.2144 16.2767
Au 11.4114 18.3849 24.8436
Pt 14.3178 8.32825 22.1587
Au 9.09423 21.283 11.2611
Pt 14.011 9.48417 9.00512
Au 19.2107 4.03693 17.4423
Pt 13.2346 16.8226 23.4531
Au 13.0198 26.6598 19.1561
Pt 19.9752 16.7119 15.92
Au 15.8754 7.09234 20.0917
Au 13.9749 27.1548 12.272
Pt 17.6448 17.195 13.7624
Au 5.9448 15.5472 20.2775
Au 15.9065 19.618 25.6325
Pt 12.3384 9.78967 21.1168
Au 12.3984 19.8814 2.35946
Pt 17.4474 19.6449 10.125
Au 11.4285 23.5806 22.6713
