561
Atoms. Timestep: 20723
Pt 9.55638 17.296 20.1658
Au 20.8199 8.18302 20.6931
Pt 23.7111 17.4757 13.5773
Au 13.6694 21.4498 4.90869
Pt 14.8518 14.8981 15.1535
Pt 16.5981 19.0688 20.408
Au 7.99742 6.04276 13.0525
Pt 17.4132 21.5756 13.4852
Au 3.5936 17.6887 11.7453
Pt 13.8348 21.1905 16.3854
Au 10.005 15.4621 24.4861
Pt 19.4203 20.7778 15.1563
Au 17.5939 24.4084 13.43
Pt 7.9309 22.5504 13.6348
Pt 20.2573 8.15601 14.3874
Au 15.1874 9.11894 6.08465
Au 22.2464 21.9975 8.60283
Pt 14.4137 12.0907 14.7321
Au 4.39393 9.87478 17.8092
Pt 21.9231 14.857 23.9159
Au 19.8227 11.4169 27.1608
Pt 17.0457 11.1226 12.183
Au 26.581 14.3966 17.0743
Pt 22.8428 14.677 19.998
Au 13.5996 23.5665 22.0231
Pt 6.9361 18.1436 19.3684
Au 10.1282 16.0895 4.14278
Au 16.4743 21.2829 3.86866
Pt 10.7542 19.1077 12.5618
Au 10.9076 24.753 17.8169
Pt 14.4971 9.86946 23.6121
Au 8.56548 20.6879 6.99533
Pt 17.9312 13.0278 22.8062
Au 23.3215 22.7483 11.9023
Au 13.2759 25.2282 19.7064
Pt 18.237 13.1654 13.4319
Pt 20.6428 13.8119 7.02579
Pt 11.7108 20.4713 17.916
Pt 17.0213 12.9044 7.18797
Pt 17.8479 6.75657 15.3302
Pt 12.0278 18.6543 19.907
Pt 15.5847 13.9274 21.8836
Au 14.7365 13.2133 26.7942
Pt 19.9062 23.6869 17.4759
Au 4.47692 15.2348 10.5397
Pt 11.1476 17.866 17.3961
Au 12.1142 14.211 26.0588
Pt 14.1151 18.3423 21.5784
Au 18.4767 23.9023 24.6055
Pt 7.86537 18.6524 10.0304
Au 8.76359 13.4242 4.99259
Pt 18.6595 17.512 12.0946
Au 14.5641 16.6281 2.80486
Pt 19.9323 14.9394 22.2043
Au 16.1845 22.9565 25.8132
Pt 22.5617 14.4894 11.3386
Pt 7.86515 12.4613 17.2881
Pt 20.1556 16.8046 17.2959
Au 12.7472 11.1172 4.43795
Au 14.7228 3.77128 20.4236
Pt 18.6094 17.2929 21.4735
Au 10.5945 14.8645 6.49306
Pt 13.1752 23.9062 14.8565
Au 10.9407 9.79361 25.303
Pt 15.8774 6.70363 13.2157
Au 9.98521 11.0035 4.14205
Pt 12.4787 17.2743 11.0702
Au 22.6926 9.18536 7.68064
Pt 14.8554 10.4262 17.0377
Au 12.8144 19.7456 23.3594
Pt 15.6796 6.10845 19.9784
Au 6.16554 15.741 8.19357
Pt 14.1904 7.66193 11.344
Au 13.4091 25.5342 17.0066
Pt 13.0397 9.5103 14.8588
Au 26.8688 17.1858 15.6276
Pt 19.1848 14.8957 11.7637
Au 20.6304 18.0452 23.1287
Pt 9.29511 11.3072 12.8462
Pt 23.1726 16.9978 11.0996
Au 9.683 8.14299 23.533
Au 4.39545 12.3019 13.6871
Pt 9.24793 20.2439 16.6553
Au 12.0686 4.45744 20.2011
Pt 10.1658 9.47041 10.8726
Au 12.9774 11.7011 25.1112
Pt 17.0455 22.9657 21.2725
Au 18.2137 8.13189 8.48149
Pt 20.2389 13.0341 24.2706
Au 18.5711 21.9761 26.535
Pt 24.6689 15.8084 15.4503
Au 20.9023 22.6239 24.9976
Pt 20.3863 18.3053 7.76844
Au 14.2221 18.6471 25.4771
Pt 12.9864 13.4616 6.08779
Au 22.2435 7.3754 18.5036
Pt 23.2703 12.1319 13.2974
Au 18.2349 26.1083 19.5686
Pt 15.0438 19.8812 14.4912
Au 24.5546 10.2096 11.8566
Pt 11.1916 14.7678 11.0298
Au 20.8092 7.39218 8.93564
Au 19.3106 25.6439 11.6284
Pt 21.0002 7.3797 11.6426
Au 8.81068 7.12431 10.6419
Pt 23.9505 18.3434 16.1692
Au 24.3977 10.8938 9.1082
Pt 17.5257 11.8032 17.4228
Au 4.57693 13.4349 8.42069
Pt 19.8792 23.4647 14.6879
Au 12.2135 4.26264 14.004
Pt 21.9517 18.4648 20.1244
Au 2.75293 11.5736 15.92
Pt 24.9006 13.0456 15.3267
Au 6.44607 20.6322 9.05536
Pt 23.4704 20.0526 12.6299
Au 22.6727 23.8659 17.8004
Pt 18.0794 17.9766 24.3845
Au 5.28648 17.8898 9.60324
Au 9.46094 5.42476 19.6556
Pt 15.1916 23.2244 17.1532
Au 19.1013 11.9492 5.37648
Au 19.3696 4.62157 14.5693
Pt 7.47928 16.3393 21.5254
Au 17.7029 4.4832 19.9585
Pt 19.2686 13.945 26.5143
Au 14.9006 4.14059 13.1303
Pt 9.04816 21.0912 9.52702
Au 16.6094 25.9608 11.0236
Pt 16.521 21.2079 18.816
Au 4.85324 9.83229 12.3387
Au 5.67081 7.859 16.4381
Pt 10.2391 15.4725 18.0308
Pt 20.8876 10.8551 20.3389
Pt 13.8574 11.7081 19.4687
Pt 14.6643 16.3246 12.6939
Pt 13.2215 11.7565 9.59043
Pt 12.7512 22.8792 18.2569
Pt 21.3785 18.5496 12.2864
Pt 13.6493 18.5069 16.9238
Pt 10.7888 10.8243 8.68811
Pt 13.6679 5.4877 18.3001
Pt 15.0159 21.0875 21.5447
Au 7.15759 13.6329 20.8876
Au 18.0679 22.0349 6.14155
Pt 16.0451 6.50057 17.3232
Au 20.006 8.44564 23.3254
Pt 8.24355 15.4906 13.4998
Au 26.9142 14.2467 11.5849
Pt 21.5822 19.3009 17.5567
Au 5.61189 14.1096 17.9845
Pt 10.8961 8.69691 16.4001
Au 12.3855 7.9881 23.3762
Pt 8.9751 9.76445 21.6046
Au 17.7006 7.07416 23.9071
Pt 11.9186 16.0131 19.8924
Au 18.4057 4.98488 17.3222
Pt 19.4623 10.7951 13.5346
Au 5.69214 19.6118 11.6798
Pt 13.8242 12.1221 12.1287
Au 23.853 21.2946 17.8213
Pt 20.552 16.6762 10.3503
Au 11.3436 24.12 10.3757
Pt 6.81814 13.5223 9.77673
Pt 14.8853 23.0564 19.7444
Au 5.95053 7.7109 13.7258
Au 24.1142 20.6829 10.0406
Pt 9.34123 8.61153 18.9129
Au 6.36645 11.2191 8.49824
Pt 9.57854 19.6724 19.2541
Au 24.2294 14.5904 22.4556
Pt 12.8907 14.433 13.0544
Au 9.08233 18.4533 5.44613
Pt 10.8862 16.4972 13.1078
Au 21.6053 21.8173 16.3632
Pt 16.4588 10.2241 19.3261
Au 18.3144 24.1673 9.58296
Pt 9.4596 6.54806 16.9568
Au 17.6438 24.4508 6.99531
Pt 21.2205 21.6661 19.1948
Au 11.213 20.0824 4.73699
Pt 17.2414 15.8886 13.6465
Au 23.2989 9.66618 19.9145
Pt 16.329 23.1993 11.3063
Au 20.2208 9.656 6.74756
Pt 12.3876 11.3642 16.5837
Pt 9.98979 21.113 14.1899
Au 8.09036 15.9418 6.26919
Au 13.5369 9.63446 21.181
Pt 15.2827 22.6047 14.3573
Au 9.5875 22.414 18.2631
Pt 15.6212 18.1333 7.69041
Au 11.4597 22.143 22.8654
Pt 9.63965 18.2627 14.8601
Au 23.1922 8.17717 13.211
Pt 10.1694 10.9464 17.8725
Au 6.59883 11.1923 21.9068
Pt 11.7773 21.6296 9.10905
Au 20.8296 25.8807 18.4782
Pt 15.3718 19.7775 9.65974
Au 21.6677 5.92503 13.8612
Pt 20.7234 13.9475 9.62384
Au 19.3543 16.9776 4.03223
Pt 10.6619 9.17894 13.6526
Au 21.1675 23.871 10.2282
Pt 17.122 13.8022 15.7305
Au 13.0188 7.0413 13.6966
Pt 17.5885 8.93135 13.8437
Pt 9.59065 13.3737 19.3881
Au 7.25712 20.8725 18.945
Au 16.1886 18.6069 17.6245
Pt 15.08 11.8746 5.67811
Au 9.12102 23.7716 15.7631
Pt 11.1443 12.1431 11.2029
Au 23.0795 17.1912 24.4468
Pt 14.334 17.2782 19.1942
Au 21.4789 24.6092 12.906
Pt 20.0967 12.6238 15.4383
Au 24.5699 16.8321 20.5864
Pt 11.8898 5.9252 16.0697
Au 3.53947 15.0477 13.298
Pt 19.1256 9.65792 18.764
Au 11.2967 13.456 3.90009
Pt 19.6214 19.2154 10.1441
Au 11.4666 22.2359 6.37775
Pt 19.4652 22.3473 22.5733
Au 16.7159 27.0228 13.6827
Pt 18.3519 19.7207 22.2629
Au 6.72268 10.3082 14.5034
Pt 15.7081 12.2216 24.1343
Au 26.1748 12.1136 13.1916
Au 10.5746 23.6912 13.3454
Pt 21.4224 21.0757 11.0099
Au 10.4014 19.7182 22.0269
Pt 13.848 14.6465 10.4994
Au 22.9745 8.64853 10.2899
Pt 18.39 6.7434 21.3998
Au 9.60759 4.39473 15.1309
Pt 19.6653 11.0362 22.7343
Au 22.3688 22.2988 22.679
Pt 22.1896 18.8937 9.631
Au 25.7768 19.1586 14.0852
Pt 8.56628 17.6807 17.3959
Au 18.6311 19.2088 27.0414
Pt 17.8387 16.9618 18.8998
Au 12.1159 17.9176 3.49611
Pt 19.704 7.69005 17.106
Au 3.45062 19.2941 15.9992
Au 12.2266 15.4237 2.3916
Pt 21.3113 16.001 13.0396
Pt 12.983 20.0868 10.9445
Pt 19.6205 15.1134 14.9649
Pt 16.2355 13.0644 19.304
Pt 15.8907 15.4814 17.8114
Pt 18.6488 14.4261 17.8148
Pt 10.8207 12.0707 6.33392
Pt 11.4014 10.6536 22.9069
Pt 20.4464 16.2664 19.8051
Pt 14.8313 8.34772 18.9802
Pt 19.412 11.9553 10.9942
Pt 14.6301 13.1382 17.2
Pt 10.6903 19.1283 9.92182
Au 14.4679 19.3362 3.47195
Au 18.8145 9.26303 25.7537
Pt 5.3147 18.8255 14.1746
Au 11.1519 23.6789 20.42
Pt 8.59041 11.4169 10.1663
Au 5.42266 21.5205 13.9878
Pt 7.83633 15.4386 19.0825
Au 24.5613 17.8363 8.74511
Pt 11.1653 11.0843 20.2979
Au 8.94108 17.5966 23.1904
Pt 19.0453 21.2919 17.7078
Au 13.3644 3.50098 16.4755
Pt 15.8258 25.0806 15.4881
Au 11.5972 13.5614 8.63874
Pt 15.0799 20.9816 12.1211
Au 11.2029 25.6077 15.2555
Pt 17.6696 16.5245 16.1468
Au 13.2704 6.39641 9.1129
Pt 10.3222 6.74451 14.1197
Au 24.1295 9.66048 17.3015
Pt 16.0963 18.4537 11.9971
Pt 22.7166 12.0426 16.4182
Au 19.0162 16.4932 27.27
Au 19.3364 22.8117 11.9178
Pt 19.1897 15.8697 8.27908
Au 10.5873 9.3648 6.32883
Pt 17.5136 20.6866 10.8493
Au 3.34333 12.418 18.3596
Pt 9.53678 12.4029 22.0205
Au 27.0126 14.5244 14.384
Pt 8.75237 13.7983 11.4653
Au 20.1272 23.5644 7.53328
Pt 14.1572 14.5399 19.669
Au 2.40991 17.5593 14.112
Pt 19.8278 17.7892 14.573
Au 15.7459 5.57843 10.5567
Pt 17.6756 23.1999 15.9662
Au 22.2119 23.9284 20.4888
Pt 19.3362 10.1376 16.0331
Au 13.0177 23.819 7.96207
Pt 15.279 16.7119 23.8501
Au 18.4068 11.9455 20.3514
Pt 11.3567 22.3738 16.0122
Pt 8.41326 20.5058 11.9736
Au 25.2411 12.0439 17.9614
Au 3.33904 14.2351 16.0438
Pt 18.1079 11.8052 25.1525
Au 16.0547 27.529 16.2519
Pt 14.2668 22.3654 9.84043
Au 16.7238 4.16639 15.2012
Pt 13.4431 7.79856 16.8866
Au 7.17041 5.77355 15.6048
Pt 21.849 10.2607 14.8418
Au 16.7574 15.0667 27.906
Pt 15.3604 10.9311 8.15862
Au 12.2949 25.7472 12.6897
Pt 11.4924 7.34648 11.4323
Au 8.17933 10.9267 6.19912
Pt 14.5342 13.5904 8.12276
Au 15.7799 25.3645 20.9763
Pt 12.7262 21.3048 13.7163
Au 15.8076 3.85833 17.8738
Pt 10.2993 13.8328 13.6048
Au 23.9881 14.6506 25.3644
Pt 21.8933 19.3882 14.8612
Pt 8.32982 11.178 19.7022
Au 14.3761 21.8038 24.1248
Au 9.80443 23.2419 8.26363
Pt 17.4592 15.6018 23.0911
Au 20.9515 20.642 26.7972
Pt 15.9564 11.1998 21.6162
Au 21.3766 25.3685 15.8501
Pt 11.0511 19.7901 7.37827
Au 14.3794 15.8951 26.5495
Pt 9.82541 15.0727 21.6644
Au 16.9356 10.3892 4.44158
Pt 13.9077 20.9664 7.61044
Au 23.0868 23.5472 14.7907
Pt 15.91 8.21537 21.5869
Au 23.3086 12.3346 24.0164
Pt 6.11879 14.0479 12.371
Au 6.36845 22.1886 11.4034
Pt 18.1033 13.8229 9.48715
Au 16.4605 20.2484 25.8358
Pt 18.6929 21.2942 20.2462
Au 13.5065 8.89942 25.7886
Pt 14.5172 5.63228 15.4071
Pt 5.69686 16.6177 12.9033
Au 26.3447 16.6738 12.866
Au 8.21239 4.29082 17.5498
Pt 12.5895 9.81056 12.0149
Au 15.901 12.7672 10.2994
Pt 24.5183 14.7115 13.0472
Au 6.61342 13.4327 6.70231
Pt 13.287 6.98153 20.7147
Au 11.4652 17.2653 22.3488
Pt 17.5669 10.2239 6.95957
Au 12.361 21.2794 20.5841
Pt 6.82716 11.5513 12.0652
Au 8.51775 10.6933 23.9956
Pt 15.7478 13.7183 12.8897
Au 25.465 14.2464 19.7161
Pt 5.82273 14.5619 14.9815
Au 8.54291 9.26689 8.38344
Pt 23.3019 13.7114 8.82942
Au 3.26065 15.2992 18.5808
Pt 13.0092 15.8104 4.92374
Au 18.3071 25.8552 16.7471
Pt 13.0972 15.7767 17.3762
Pt 18.7503 18.8927 16.844
Pt 7.9837 14.9544 16.4011
Pt 24.1216 18.8882 18.8166
Pt 7.13688 16.0831 10.7771
Pt 9.33541 10.748 15.4202
Pt 5.97748 11.7204 18.9983
Pt 6.03531 16.6068 17.4468
Pt 17.1596 9.03757 16.933
Au 7.77632 19.371 21.4508
Pt 12.9975 10.7077 7.07918
Au 20.1512 4.74375 11.9227
Pt 17.4534 4.7156 12.5668
Au 8.78259 23.3189 11.0789
Pt 22.0678 16.6399 15.5702
Au 22.3537 10.1444 22.49
Pt 10.8796 21.6229 11.6061
Au 22.9542 14.4966 5.81832
Pt 13.4512 18.841 5.95523
Au 10.7095 7.60665 8.66809
Pt 11.5351 16.279 8.81134
Au 7.99771 13.9758 23.465
Pt 22.7584 16.7141 18.1747
Au 21.9601 12.9437 26.33
Pt 14.9629 24.9252 12.9632
Au 26.0276 19.5847 16.9098
Pt 8.01279 18.0263 12.6616
Pt 15.9872 16.4985 21.0398
Pt 17.9322 17.4163 6.3977
Au 20.523 20.8974 6.81603
Au 23.4071 17.2315 6.23035
Pt 19.4555 21.7275 9.27309
Au 6.14819 19.3796 16.8704
Pt 13.2584 23.1436 12.0937
Au 10.1489 12.5349 24.9201
Pt 15.3699 17.4057 15.1812
Au 26.0485 13.2508 8.87383
Pt 20.4104 13.6534 19.8967
Au 7.14701 21.982 16.3177
Pt 22.2298 11.8494 10.6295
Au 25.5929 16.7639 18.0089
Pt 11.407 17.393 6.30022
Au 18.7658 19.6336 5.04909
Pt 18.2955 9.34236 21.2465
Au 3.23428 19.9892 13.2237
Pt 19.6087 23.7691 20.2476
Au 4.56071 12.2687 10.8358
Pt 21.3071 14.3928 17.3472
Au 18.2703 25.2281 22.2395
Pt 12.7528 16.7499 14.9353
Pt 16.7091 20.8321 16.202
Au 22.5833 7.79882 15.8557
Au 15.8853 24.18 23.4517
Pt 15.4085 8.23788 15.2844
Au 6.77102 9.25625 10.4638
Pt 8.20467 8.83451 12.6612
Au 23.4347 20.9899 20.5157
Pt 17.4469 23.6805 18.6463
Au 16.3151 5.21395 22.3584
Pt 7.59202 19.9927 14.5185
Au 22.1799 20.0981 24.3388
Pt 20.9331 20.3203 21.6444
Au 20.8643 24.5312 23.0187
Pt 13.5537 12.1759 22.3313
Au 21.0711 5.56407 16.5527
Pt 24.6746 12.8342 11.074
Au 24.3128 12.344 6.78568
Pt 11.071 8.41736 20.9274
Au 14.8954 7.09384 23.8212
Pt 17.4711 18.8327 14.278
Au 7.3469 9.74929 17.3624
Pt 21.7621 12.8877 21.962
Pt 21.9123 11.6712 8.01085
Au 21.346 18.7414 5.16503
Au 25.3349 18.5844 11.2894
Pt 15.4098 17.2009 5.29731
Au 6.93095 18.413 7.37734
Pt 17.5735 17.6654 9.5908
Au 17.2921 12.4528 27.5982
Pt 20.5761 9.92877 9.50216
Au 20.8356 18.0993 25.8641
Pt 12.7803 9.11499 9.41137
Au 5.25182 16.1001 20.1768
Pt 22.7056 12.2282 18.9814
Au 10.3167 5.02731 12.0838
Pt 21.467 21.693 13.5605
Au 21.8575 11.8813 5.41603
Pt 15.033 10.1181 10.6302
Au 5.39054 11.9757 16.2236
Pt 17.9271 14.7235 20.4283
Au 24.6161 10.2644 14.7234
Pt 16.635 21.996 8.58323
Au 10.9502 4.076 17.7008
Pt 20.7584 16.2822 6.22478
Au 8.33814 7.25922 21.1957
Pt 13.0395 18.5833 8.6469
Au 20.5533 26.1939 21.0407
Au 18.555 6.09203 10.2326
Pt 22.4403 14.1781 14.8136
Au 14.1562 13.65 3.51699
Pt 15.3535 8.2362 8.76167
Au 20.5463 14.1863 4.28985
Pt 19.085 9.11614 11.4451
Au 20.0246 5.93956 19.2984
Pt 17.71 7.49815 19.0852
Au 24.2207 12.0987 21.1674
Pt 21.5421 9.79637 17.6647
Au 15.9903 20.0655 6.00585
Pt 18.7166 6.83161 12.8218
Au 2.22803 16.8957 16.7303
Pt 16.8708 11.186 14.9534
Pt 8.92731 15.2091 8.94469
Pt 17.0824 21.6965 23.5824
Pt 11.477 6.90062 18.6783
Au 14.498 27.3836 12.0901
Pt 7.19335 17.252 15.1552
Au 4.09567 18.0434 18.4081
Pt 11.9209 13.5228 20.8207
Au 6.49249 9.09693 20.0066
Pt 19.5668 15.828 24.7016
Au 13.8242 25.2951 10.4232
Pt 16.6773 15.5057 10.9971
Au 15.38 22.9613 6.35582
Pt 14.2081 14.2882 24.2832
Pt 10.098 13.1742 16.2484
Pt 8.33547 8.21436 15.2456
Au 10.8264 6.01744 22.0565
Pt 22.2257 16.4112 21.849
Au 12.9134 7.99872 6.94403
Pt 20.8994 13.0962 12.8821
Au 7.25856 6.85858 18.4689
Pt 19.5136 18.99 19.4411
Au 22.0791 16.3954 3.95395
Pt 14.8487 17.0304 9.92484
Au 13.0379 5.09601 11.4787
Pt 16.8083 8.1018 11.0955
Au 4.48334 13.4363 20.5706
Pt 17.5721 10.4798 9.63673
Au 16.9575 15.6772 3.54778
Pt 13.7723 16.1076 7.46128
Au 21.6412 15.6014 26.5439
Pt 10.2945 15.8266 15.5241
Au 15.875 19.2594 23.3409
Pt 9.38151 17.7269 8.07003
Pt 24.9687 15.4443 10.2395
Pt 22.3131 16.1047 8.47921
Au 13.5192 5.14002 22.5051
Au 15.774 25.7985 18.2965
Pt 11.7616 11.7224 13.9534
Au 18.3218 14.8054 5.77744
Pt 21.5481 10.0274 12.2151
Au 16.8526 14.4877 25.3581
Pt 13.3641 18.5872 13.1169
Au 24.1215 21.0464 15.1008
Pt 13.5239 15.6175 22.0466
Au 19.3875 26.2485 14.2721
Pt 7.78038 12.8832 14.3916
Au 21.1827 10.5499 24.9656
Pt 12.0102 13.3822 18.2251
Au 24.9811 15.3355 7.49246
Pt 11.8711 19.4872 15.2969
Au 12.5585 16.5853 24.6608
Pt 16.4931 15.5642 8.06992
Au 4.20403 10.6878 20.4858
Pt 23.8876 14.3858 17.4907
Au 19.4171 20.3531 24.5819
Pt 15.0602 9.68151 13.1793
Au 8.86979 12.8215 7.95513
Pt 14.2069 20.1242 19.0446
Au 17.1863 9.75166 23.6729
Au 22.9892 19.7024 7.26478
Pt 19.2919 11.8734 8.15778
Au 16.9208 13.0201 4.04596
Pt 11.7566 13.8543 23.3444
Au 13.8728 26.874 14.6713
Pt 12.4268 13.9483 15.5568
Au 18.0319 19.7785 7.89368
Pt 20.1335 12.0177 17.9326
Au 4.16692 9.58592 14.9739
Pt 4.48049 16.7293 15.4676
Au 23.5126 18.8715 22.2576
Pt 15.4543 14.6446 5.71886
Au 16.5564 17.4104 26.4318
Au 16.97 18.4423 3.49739
Pt 9.64975 16.8835 10.8732
Au 16.2295 8.21252 25.8444
Au 15.6262 10.6889 26.291
Pt 19.3801 20.0917 12.6701
Au 9.22168 21.8196 20.9066
Pt 12.4058 9.48938 18.6293
Au 15.6593 24.5321 8.71372
