561
Atoms. Timestep: 20498
Pt 7.75676 13.5438 20.9186
Au 6.19461 11.3394 8.40408
Pt 11.0919 10.5423 13.4207
Au 12.9099 3.96039 17.6775
Pt 7.99367 13.1433 7.72011
Pt 7.41647 13.3451 18.4286
Au 7.07803 15.8297 6.43828
Pt 9.35486 17.185 7.55589
Au 3.04868 15.6893 18.7492
Pt 4.44273 11.7365 15.3193
Au 5.47189 21.0777 10.8733
Pt 9.80761 9.8266 17.6501
Au 12.393 5.41603 9.24606
Pt 5.58707 14.8026 17.1862
Pt 9.76338 13.4834 22.6511
Au 10.2037 12.5844 4.4527
Au 4.58575 11.4214 10.7752
Pt 4.86654 16.9526 13.8825
Au 9.21987 8.49207 7.50327
Pt 3.64507 16.2592 16.156
Au 3.52801 18.7954 19.4823
Pt 6.39723 13.4202 10.2677
Au 11.8964 22.4829 23.9442
Pt 6.05149 18.4915 20.3878
Au 4.74058 16.2532 21.1165
Pt 8.30428 17.9312 21.3138
Au 3.37835 16.8889 11.5345
Au 10.0515 23.1664 22.0455
Pt 5.38506 15.0132 12.277
Au 2.5792 15.4091 13.7067
Pt 9.21693 17.7119 15.8622
Au 12.6184 18.5077 26.7908
Pt 5.21282 17.0644 18.4109
Au 3.01718 20.7679 15.1685
Au 7.2635 19.5572 25.0337
Pt 7.50187 18.0223 13.8226
Pt 9.4296 7.14681 17.5916
Pt 8.41165 9.19603 13.1994
Pt 6.95732 12.9568 15.6443
Pt 10.751 8.55644 15.3471
Pt 12.5377 6.87646 11.4218
Pt 8.92537 10.7427 8.73286
Au 7.34431 18.647 6.35489
Pt 9.49724 14.7628 6.23513
Au 3.29889 12.8683 12.8473
Pt 6.62396 10.5184 14.5626
Au 7.78495 6.56533 12.3397
Pt 11.6845 10.0868 8.21266
Au 12.0186 4.2236 12.0167
Pt 9.91954 10.3765 11.0945
Au 6.11755 11.3113 20.2667
Pt 8.44168 11.798 13.0044
Au 10.0057 5.76521 10.8044
Pt 6.34056 7.88485 14.3234
Au 14.1271 4.79835 20.1631
Pt 12.3227 12.5035 22.0439
Pt 12.5102 9.72422 21.2259
Pt 11.5737 16.7676 6.40067
Au 14.2423 6.37799 7.34048
Au 10.8818 9.60892 5.63
Pt 9.01735 12.9481 10.1396
Au 8.36966 10.8965 6.08827
Pt 11.5402 19.5234 8.14209
Au 5.98345 8.75181 11.8191
Pt 10.5933 13.0046 12.2832
Au 12.9454 14.6849 10.2618
Pt 12.9471 8.72062 13.594
Au 3.74156 14.1146 10.3633
Pt 8.02309 14.2964 12.1865
Au 7.54266 13.8256 24.2746
Pt 5.11375 12.1158 17.7457
Au 4.90885 13.8914 19.7416
Pt 7.16596 15.7473 22.3707
Au 7.02059 6.44115 16.5687
Pt 10.3587 13.3244 20.024
Au 5.341 9.26171 16.6239
Pt 11.5322 6.04021 16.5187
Au 23.0548 12.6092 24.1665
Pt 7.7661 11.6899 22.6382
Pt 5.94646 12.4886 12.9462
Au 7.60933 13.3494 5.11336
Au 13.9248 15.3346 7.66228
Pt 10.7786 14.5707 8.45314
Au 12.9637 19.406 10.5876
Pt 8.09591 15.3534 9.11133
Au 11.9598 17.3177 11.9192
Pt 7.24342 10.8852 10.8972
Au 14.1321 14.016 15.4969
Pt 11.8258 20.6918 13.0199
Au 12.2826 14.8173 13.2868
Pt 8.17372 15.3709 16.7989
Au 11.5683 18.3434 14.4193
Pt 7.81133 16.7862 11.4757
Au 5.9725 18.1132 23.0656
Pt 7.34836 20.2723 22.2526
Au 7.29402 16.689 24.9728
Pt 7.1619 15.7735 19.5995
Au 3.07794 13.656 16.818
Pt 11.3452 13.8604 24.6939
Au 12.0616 11.7464 26.2279
Pt 11.5968 17.5252 24.5531
Au 4.32952 18.7554 9.65976
Au 14.1166 26.0969 13.4432
Pt 9.80062 17.9474 10.0273
Au 6.21652 20.257 8.33023
Pt 10.4467 22.5897 16.9656
Au 5.12085 17.2693 7.55454
Pt 4.75295 14.2378 14.7418
Au 6.79622 24.1657 16.5414
Pt 10.1134 22.0145 19.5086
Au 15.7091 19.9988 10.3647
Pt 12.0667 20.4576 18.5054
Au 10.2828 15.3791 10.9323
Pt 14.2252 21.2063 14.5223
Au 5.57449 13.4661 22.3596
Pt 12.3909 21.8535 21.2997
Au 9.14397 21.4281 23.9411
Pt 9.97187 20.3468 21.5135
Au 9.23732 14.7422 26.1351
Au 9.48903 17.5788 26.2776
Pt 20.6683 20.6382 21.7582
Au 8.69415 24.2383 18.6002
Au 3.63166 21.1396 18.0247
Pt 5.96296 19.8406 18.0367
Au 4.84956 21.9757 13.3931
Pt 6.30021 17.3973 16.1343
Au 5.4461 21.8404 16.0463
Pt 3.92737 18.7805 16.7268
Au 7.65369 22.6097 20.7374
Pt 18.6982 22.1134 20.6172
Au 10.6008 20.0491 25.755
Au 5.22634 20.97 20.5395
Pt 12.5865 19.2735 20.7584
Pt 18.5133 5.62434 14.0937
Pt 15.9451 6.69499 14.2859
Pt 18.2567 5.57177 16.8481
Pt 14.7547 8.08302 11.9488
Pt 10.416 7.94554 12.4397
Pt 21.0679 12.416 19.8225
Pt 9.05339 6.80119 14.6818
Pt 11.9198 8.29781 18.2354
Pt 14.5288 10.9226 22.6392
Pt 9.62495 18.9503 12.5356
Au 8.21646 8.29937 10.2177
Au 9.69789 4.65369 13.3726
Pt 10.8522 8.12037 9.71931
Au 15.627 7.71864 5.42409
Pt 14.4782 13.5382 5.4681
Au 14.4509 3.82836 10.7889
Pt 12.5611 9.82636 11.0951
Au 11.6495 7.31177 7.22292
Pt 13.3343 12.647 7.88523
Au 16.5406 4.18225 15.3259
Pt 9.20835 13.8132 14.6217
Au 7.38685 8.66936 18.8024
Pt 14.2643 5.47414 12.8548
Au 19.0742 9.11485 23.6333
Pt 7.35501 10.956 17.324
Au 9.33025 4.67954 16.232
Pt 8.70208 11.1943 19.6633
Au 4.26457 10.1482 13.2623
Pt 15.9532 6.92701 19.5579
Au 10.6504 8.53247 22.8302
Pt 16.0522 12.6453 21.1755
Pt 10.9237 15.3225 4.08148
Au 16.9054 6.61805 7.90059
Au 5.44202 14.2633 7.95039
Pt 10.5193 12.1788 7.12723
Au 10.1975 19.3683 5.79689
Pt 13.6114 9.12481 6.76395
Au 13.9183 9.46885 4.19093
Pt 11.48 12.1768 9.72767
Au 12.3904 10.391 16.4337
Pt 13.3785 7.74203 15.9283
Au 9.77087 12.9025 17.2961
Pt 7.07815 15.4432 14.3884
Au 14.9259 16.1015 20.2131
Pt 9.31288 11.0728 15.3489
Au 10.2046 15.7382 18.4162
Pt 9.17446 18.6496 23.7337
Au 16.1077 8.67944 23.7902
Pt 12.9081 14.0925 20.1381
Au 15.1207 6.43428 22.1713
Pt 9.54465 15.9259 23.743
Au 13.4175 8.34343 23.4453
Pt 12.0461 10.6687 23.8403
Pt 12.9277 18.9609 5.87566
Au 11.6749 17.8451 3.823
Au 14.8523 11.8402 3.39176
Pt 10.5179 20.481 10.4801
Au 15.4013 13.5893 13.0409
Pt 15.0906 17.5807 6.61491
Au 13.1755 12.4213 11.7915
Pt 5.20819 19.4545 14.4707
Au 15.6787 16.2109 17.1656
Pt 5.5598 16.139 9.9791
Au 14.9043 11.5576 16.8364
Pt 10.2498 18.4786 19.4683
Au 15.0053 13.835 18.5261
Pt 13.2672 21.8616 9.30849
Au 11.0709 15.4202 15.8218
Pt 7.9589 17.8804 18.2565
Au 12.4789 13.003 17.6319
Pt 13.4524 17.4261 22.3832
Au 24.773 20.0004 22.6515
Pt 14.285 20.1438 22.7323
Au 7.95056 9.33782 21.5265
Pt 16.8037 18.9527 23.2663
Pt 12.6565 23.0115 18.8648
Au 9.09161 24.6264 13.1748
Au 7.00587 23.1465 12.0606
Pt 7.21849 17.8863 9.04285
Au 7.97978 22.1367 9.51457
Pt 7.86543 19.7926 10.7365
Au 2.52194 18.1387 14.4243
Pt 7.92727 21.8793 17.5494
Au 11.6181 25.2431 17.4863
Pt 14.4492 21.2846 17.1959
Au 14.2158 18.9056 13.0734
Pt 9.70952 19.9655 17.3413
Au 13.5868 16.6729 15.0145
Pt 7.42429 19.8602 15.877
Au 14.085 18.3103 18.5154
Pt 18.3712 21.1295 23.1954
Au 13.0725 15.6761 17.7108
Pt 14.4319 20.8951 19.7877
Au 9.73531 16.2845 13.5131
Pt 11.7709 19.8705 23.3478
Au 19.5168 24.8193 20.6347
Pt 21.9664 16.4548 22.074
Au 10.9646 24.7311 20.0518
Au 5.75744 22.8287 18.6999
Pt 8.02714 22.5342 14.8017
Au 3.4871 19.6769 12.3644
Pt 8.05021 20.1998 19.632
Au 12.8676 21.5962 6.68573
Pt 14.9365 23.7955 17.8595
Au 9.31838 24.8147 15.9216
Pt 11.6806 22.7821 11.2868
Au 11.671 25.5532 14.7057
Pt 14.909 23.342 20.5867
Au 14.9115 18.9132 15.8796
Pt 12.8399 23.206 16.093
Au 16.0923 26.2811 17.7029
Pt 17.3733 23.9874 16.7898
Au 21.9382 23.99 15.5681
Pt 16.7481 22.106 18.7495
Au 20.1853 23.14 22.778
Au 12.8368 24.3822 21.9469
Pt 19.292 23.2525 18.3945
Pt 15.1396 11.1352 6.17859
Pt 16.209 13.1644 7.44748
Pt 13.5561 8.19805 9.23542
Pt 18.1569 7.8547 15.2842
Pt 14.9718 6.22653 10.0215
Pt 20.0335 7.06188 20.5186
Pt 16.0704 7.11162 16.9025
Pt 17.0602 9.42443 19.6294
Pt 22.2594 9.99448 20.3149
Pt 17.2693 9.83243 16.9502
Pt 21.1083 8.3792 18.5392
Pt 16.1985 15.4588 5.66638
Au 17.0721 12.9724 4.54013
Au 12.7317 13.5626 3.34788
Pt 14.4241 10.6529 9.05641
Au 21.2687 6.2312 10.389
Pt 18.7297 7.15341 9.77492
Au 23.2066 8.35757 9.41222
Pt 20.5883 6.70696 16.1342
Au 16.6164 4.059 12.604
Pt 21.4004 10.237 12.2976
Au 10.0519 8.38379 20.1382
Pt 8.03759 8.79863 16.0163
Au 22.8398 7.3335 20.252
Pt 19.4251 7.59866 12.3688
Au 18.0464 5.34099 19.6313
Pt 14.1144 5.26581 15.6031
Au 26.4258 15.2104 21.9082
Pt 17.2354 10.4529 22.1362
Au 11.2024 5.66502 19.1481
Pt 10.1833 10.9617 21.8202
Au 15.7995 4.55023 17.95
Pt 15.7798 16.5264 22.896
Pt 13.5339 15.98 4.88828
Au 15.3408 14.8286 3.20789
Au 15.4127 10.7838 11.6273
Pt 12.6319 11.5351 5.43856
Au 15.3268 13.292 10.0491
Pt 18.8983 9.60957 8.42972
Au 19.6327 14.6834 11.7335
Pt 15.3329 23.425 15.182
Au 11.6478 12.7103 14.9765
Pt 17.1027 11.3334 9.21847
Au 17.7088 12.4044 11.7773
Pt 20.3549 12.4912 12.9585
Au 14.1767 11.4086 19.7866
Pt 19.9226 11.7061 10.2488
Au 11.5034 11.02 19.2262
Pt 17.6785 14.442 22.6019
Au 25.0141 10.4459 20.7683
Pt 18.751 12.4377 20.9828
Au 13.6041 13.9114 26.8246
Pt 13.3546 15.6663 24.5176
Au 11.645 15.8498 26.733
Pt 10.8155 17.6907 22.0168
Pt 8.94996 19.9101 8.20942
Au 17.1142 18.072 4.61894
Au 9.06843 17.0815 4.78332
Pt 12.0133 14.0913 6.07609
Au 11.8948 24.3322 9.04255
Pt 21.1968 14.4331 6.85469
Au 12.1094 17.0481 9.0025
Pt 7.20635 20.5905 13.1487
Au 21.1785 15.3678 17.5669
Pt 16.8742 19.472 7.50492
Au 16.1936 16.0379 14.4624
Pt 13.7602 6.44631 18.1916
Au 19.075 10.296 13.8448
Pt 24.9939 17.933 18.2401
Au 17.2877 14.6598 19.8449
Pt 12.2115 16.6761 20.0497
Au 19.7845 17.8854 18.0748
Pt 16.3412 21.2426 21.5339
Au 14.4728 16.4936 26.9071
Pt 9.52745 15.6352 20.9599
Au 9.64501 11.6684 24.6564
Pt 14.4237 18.2572 24.667
Pt 14.1999 19.5011 8.12881
Au 15.3206 20.2398 5.44485
Au 21.2765 14.7531 4.26856
Pt 19.1629 19.0606 6.15436
Au 18.4219 15.4511 4.14104
Pt 23.0075 12.8845 8.08875
Au 14.7622 17.2338 9.70464
Pt 9.65165 20.4538 14.6964
Au 18.1019 13.9802 14.0187
Pt 14.0284 21.6637 11.855
Au 14.4363 16.0493 12.2468
Pt 12.0524 20.6218 15.8573
Au 17.2296 19.2225 14.0698
Pt 5.79745 18.4024 11.7915
Au 16.756 13.6552 16.409
Pt 18.2627 19.4964 20.6966
Au 14.6661 22.7449 23.2769
Pt 19.5475 22.5237 15.9108
Au 16.1286 20.9108 24.8724
Pt 15.6143 18.6463 20.8806
Au 18.9165 25.9044 18.0377
Pt 21.8582 19.3577 16.7899
Pt 20.1002 16.609 5.88683
Au 9.49513 24.0838 10.4776
Au 14.5408 18.0881 3.82165
Pt 9.34121 21.917 12.2739
Au 19.6534 24.5796 10.362
Pt 18.273 19.8443 11.3805
Au 13.7302 25.5643 19.3956
Pt 13.1853 23.5776 13.4347
Au 16.5239 17.7717 12.0024
Pt 10.8017 22.8922 14.3251
Au 21.0029 20.8061 6.75288
Pt 14.0311 25.5572 16.1115
Au 18.4571 25.5246 12.693
Pt 15.5539 21.7502 7.71999
Au 11.7239 18.0122 17.129
Pt 21.2853 22.7563 20.1745
Au 17.3886 17.2545 19.1231
Pt 16.3754 21.4419 12.9569
Au 17.2727 23.7159 22.2608
Pt 18.9406 20.6182 18.1306
Au 21.4948 24.7074 18.2293
Pt 23.3432 21.3365 20.7039
Pt 16.3798 8.57646 9.95052
Pt 19.8695 9.35778 16.4388
Pt 16.9992 6.55778 11.7957
Pt 23.6762 12.1279 18.8222
Pt 22.5716 8.78087 16.3238
Pt 21.0358 13.7644 22.4627
Pt 18.5374 7.71831 18.282
Pt 18.4465 13.7985 9.30697
Au 26.2177 11.0166 18.4337
Pt 22.2616 14.2982 12.1618
Au 19.194 4.90303 11.5618
Pt 17.8563 11.2417 6.54728
Au 16.7877 9.97886 4.41157
Pt 20.9912 8.33779 14.2075
Au 23.0527 6.55921 17.5972
Pt 22.6169 7.82485 12.0759
Au 25.3734 8.74307 15.7698
Pt 11.8728 6.29365 13.9558
Au 21.1999 5.72306 13.3895
Pt 19.4694 9.5309 20.8807
Au 12.7698 7.12113 20.8299
Pt 13.7487 12.8429 24.3806
Au 14.5838 10.4814 25.3468
Pt 15.0165 8.87301 21.0977
Au 23.4477 10.1447 23.0257
Pt 19.5115 18.5698 23.1603
Pt 19.8313 15.7841 23.551
Pt 18.5227 14.353 6.66235
Au 18.3106 8.23847 6.11519
Au 25.3551 8.28446 12.6104
Pt 19.8133 16.2415 8.57561
Au 17.0749 4.63035 9.87107
Pt 20.7453 8.85292 10.3026
Au 13.8805 11.3191 14.1265
Pt 16.2153 9.23392 7.52476
Au 18.6087 15.6312 16.4312
Pt 21.6664 16.7047 12.9766
Au 16.6999 11.5576 14.5154
Pt 23.8455 14.6331 22.5054
Au 14.596 9.12162 18.2439
Pt 19.323 10.6819 18.6461
Au 15.3111 9.25712 15.2369
Pt 23.3512 18.7493 20.7228
Au 16.9702 11.9503 18.7114
Pt 24.3919 20.5447 13.5028
Au 11.8571 3.82556 14.9597
Pt 11.8464 15.1877 22.3833
Au 20.7211 20.7752 24.5522
Pt 20.4734 18.015 20.7604
Pt 17.8182 17.0132 6.93581
Au 22.2778 11.8676 5.8128
Au 20.369 9.9729 6.06068
Pt 19.9947 12.2695 7.66897
Au 26.9575 17.0663 11.9439
Pt 16.5232 15.4762 8.52651
Au 16.9889 15.2149 11.276
Pt 25.6073 10.8179 13.7044
Au 22.6406 13.3242 16.4135
Pt 22.4849 12.0831 10.6302
Au 16.9247 8.97228 13.0987
Pt 23.5232 15.1249 14.4245
Au 22.3559 15.489 24.6418
Pt 24.9936 17.5071 14.0717
Au 19.2459 13.5602 18.2428
Pt 25.5711 20.0144 20.0073
Au 19.8902 15.309 20.4261
Pt 15.7065 14.8727 24.9266
Au 13.428 20.7268 25.374
Pt 18.0447 16.9374 21.7155
Au 16.3373 18.3898 26.4294
Pt 21.2192 20.0788 19.3206
Pt 24.0243 10.299 11.4879
Au 18.2061 21.6004 6.54279
Au 25.2974 16.7769 9.55669
Pt 22.1608 16.6414 10.2761
Au 14.5102 24.129 8.18788
Pt 21.993 21.0916 9.22284
Au 19.4503 17.2437 11.1135
Pt 10.6861 22.0684 8.52386
Au 21.5782 18.2122 7.66762
Pt 20.0292 21.6913 10.7914
Au 18.7192 16.6958 13.7274
Pt 17.0474 24.5324 19.557
Au 20.7648 14.5634 14.7361
Pt 21.9249 20.8888 12.3418
Au 17.5506 18.1135 16.4234
Pt 20.6669 17.2931 15.4861
Au 24.3393 17.2371 23.2466
Pt 22.5714 18.8188 14.288
Au 26.1948 20.8614 17.5852
Pt 21.5736 21.9961 17.5049
Au 22.6949 21.8706 23.1355
Pt 21.7065 21.3041 14.8622
Au 20.0371 22.808 8.30788
Pt 15.7738 24.1398 12.654
Au 17.3997 23.8689 8.20832
Au 13.8981 24.7619 10.832
Pt 19.1171 21.2896 13.5021
Au 16.8093 25.2896 10.4292
Pt 17.7783 21.4662 9.27139
Au 16.5861 25.9203 14.8877
Pt 16.4472 19.6477 18.3576
Au 17.4859 17.8436 9.45214
Pt 20.4679 23.4318 13.1116
Au 23.2957 23.0401 13.3023
Pt 19.5141 19.8054 15.6982
Au 24.098 22.1062 16.0015
Pt 17.0111 21.2828 15.9414
Au 26.8223 19.3457 13.7844
Pt 23.9511 9.30292 18.4329
Pt 18.1369 13.9934 25.1813
Pt 20.9444 11.1265 22.2704
Pt 21.1565 14.168 9.54273
Au 24.1931 10.4572 7.69847
Pt 23.1691 12.3328 21.4355
Au 20.5905 5.53683 18.4783
Pt 23.0684 12.2154 13.5947
Au 19.1132 12.0987 16.0158
Pt 22.4705 14.5861 20.0691
Au 17.6455 7.50973 21.6841
Pt 21.7238 10.9692 17.6934
Au 21.4595 8.36024 22.4629
Pt 18.9816 12.0795 23.6067
Pt 23.9348 15.2493 18.0451
Pt 18.4221 9.77276 11.1074
Au 20.7235 7.72764 7.84397
Pt 23.4127 9.52452 13.9947
Au 27.0472 11.3408 15.892
Pt 23.8578 14.4135 10.0652
Au 23.4481 6.84074 14.642
Pt 24.9243 13.0612 12.139
Au 19.7641 15.8356 26.2879
Pt 21.4423 11.0551 15.0983
Au 27.759 13.583 18.6871
Pt 25.7757 15.9432 16.2228
Au 18.5856 19.4247 25.5256
Pt 25.5583 13.4069 17.3875
Au 17.4993 10.623 25.322
Pt 16.3053 12.4628 23.8349
Au 20.7068 13.3701 25.2908
Pt 25.2576 13.6173 20.1378
Au 16.0499 12.7068 26.5376
Pt 14.498 14.323 22.3524
Pt 17.7287 16.8222 24.6669
Pt 21.6884 10.465 8.48237
Au 22.6858 16.7093 5.56014
Au 23.7175 14.2209 5.79699
Pt 24.1935 11.0649 16.2656
Au 27.7751 14.0479 15.7912
Pt 23.1071 15.8479 8.00596
Au 25.5295 12.5069 22.626
Pt 25.0827 12.0757 9.62709
Au 28.2752 16.1969 17.3578
Pt 23.4827 18.5519 11.8586
Au 25.6748 9.3109 9.74374
Pt 26.4111 15.8319 19.1249
Au 27.902 16.7422 14.5884
Pt 25.1899 13.1681 14.9149
Au 21.0994 10.6261 24.7929
Pt 23.2483 17.0432 16.2101
Au 26.3129 17.9183 21.4162
Pt 22.3631 17.4517 18.7936
Au 17.0967 15.6618 27.0802
Pt 22.2335 19.0007 23.0371
Au 21.0617 17.9056 25.1946
Pt 23.664 20.3329 18.2772
Au 19.7737 12.5884 4.90067
Pt 19.4893 19.6262 8.71713
Au 25.8535 19.3596 11.1996
Au 24.1105 21.408 10.8872
Pt 24.3346 16.0673 11.9742
Au 25.47 14.3013 7.96827
Pt 15.7105 22.7973 10.2403
Au 23.7448 19.0037 9.19623
Pt 24.3167 16.3717 20.5297
Au 26.8367 11.0925 11.3491
Pt 26.1863 15.0707 13.5267
Au 27.5392 18.389 19.0414
Pt 17.7827 23.4399 14.2243
Au 27.0697 18.5266 16.3957
Pt 24.5788 19.4137 15.9296
Au 23.7832 23.0384 18.653
Au 11.5009 25.3564 11.9892
Pt 20.174 18.9736 13.1687
Au 26.6073 14.4655 10.69
Au 22.1101 23.3677 10.8024
Pt 17.988 22.9878 11.5671
Au 27.5279 12.7764 13.3321
Pt 21.2261 19.0785 10.5783
Au 19.4869 25.2706 15.3708
