561
Atoms. Timestep: 20799
Pt 13.6137 12.878 8.42823
Au 19.1549 10.2791 23.3374
Pt 23.5875 13.1761 11.6701
Au 23.1776 17.0549 16.7694
Pt 9.20735 13.256 15.6963
Pt 9.10115 19.8009 10.4207
Au 6.71586 17.9331 6.59778
Pt 21.5254 16.2579 14.7373
Au 26.2288 12.751 11.3136
Pt 8.10823 12.8366 17.9163
Au 4.61353 7.29734 17.0692
Pt 8.5046 13.4053 22.754
Au 23.1553 16.8366 19.5038
Pt 9.73619 22.5464 14.088
Pt 6.95 10.0689 13.8713
Au 23.1367 12.6872 22.1547
Au 16.5818 25.583 19.2518
Pt 19.2146 11.1739 20.6644
Au 10.2722 23.5962 21.6575
Pt 18.8056 17.3737 5.46272
Au 17.6368 7.95827 23.8284
Pt 15.6828 16.6659 8.33876
Au 18.425 26.0309 14.0822
Pt 21.6781 15.9238 21.6048
Au 8.94449 16.9047 26.0086
Pt 11.2858 17.648 24.5691
Au 5.72537 17.0584 22.4987
Au 22.7978 6.77133 18.5286
Pt 13.2409 25.0513 12.7994
Au 18.5869 16.2505 26.7287
Pt 22.9041 16.9718 9.06319
Au 19.1619 23.4488 6.06737
Pt 19.9613 20.0252 16.4564
Au 13.0544 13.212 25.5308
Au 16.8624 3.04465 11.5276
Pt 12.5631 22.3584 13.3159
Pt 13.1205 17.7831 11.0475
Pt 13.7631 20.4459 11.8621
Pt 17.0989 13.7483 15.1475
Pt 12.3937 12.595 22.3445
Pt 22.3359 14.6053 7.03806
Pt 7.86073 15.6751 21.4735
Au 8.60183 6.91796 20.817
Pt 22.0139 19.0757 15.2979
Au 9.31467 19.5182 25.2613
Pt 9.57336 12.3373 20.3625
Au 17.9724 8.57117 13.8127
Pt 13.9934 17.4998 20.8952
Au 5.44969 10.1375 11.578
Pt 9.19012 15.823 16.0746
Au 12.1718 23.92 6.27903
Pt 17.7445 11.3032 13.9833
Au 15.4378 14.1603 4.26561
Pt 24.3811 14.8394 17.8646
Au 20.872 17.0339 25.3026
Pt 20.6233 14.8685 8.92329
Pt 21.0189 21.0969 12.1206
Pt 18.663 14.7228 17.3392
Au 21.7179 10.2566 22.3043
Au 19.4797 4.17571 15.9498
Pt 17.0652 13.8836 6.45312
Au 24.3499 19.6235 16.6502
Pt 11.553 18.6483 16.0441
Au 18.6092 12.0634 25.3972
Pt 15.3563 12.2304 13.585
Au 18.0912 3.09157 13.8799
Pt 9.23171 7.30201 11.8887
Au 8.63806 5.23972 15.428
Pt 20.4621 13.3616 11.0532
Au 4.77636 17.8602 15.5304
Pt 17.6008 16.9017 12.6355
Au 13.5297 10.192 7.17201
Pt 21.7696 11.3813 19.944
Au 13.0488 26.4508 15.101
Pt 11.5296 10.5059 20.5349
Au 25.4851 11.6192 13.8793
Pt 9.77542 8.8817 9.56023
Au 14.0037 5.30846 20.7501
Pt 17.0445 9.11831 16.2677
Pt 24.0536 17.9143 14.3139
Au 16.5519 10.4346 24.3251
Au 6.58476 20.853 19.8923
Pt 9.49657 20.5771 15.8036
Au 11.3579 6.00127 20.7009
Pt 20.3374 5.45143 18.1383
Au 24.2495 10.6594 20.45
Pt 6.62421 8.77176 16.294
Au 23.2447 15.3821 4.67153
Pt 16.5349 20.8563 12.0422
Au 4.93803 11.7654 20.5868
Pt 18.0311 20.0504 5.66889
Au 15.6125 15.0493 27.116
Pt 18.9598 18.5864 7.81993
Au 7.66985 6.36322 9.88905
Pt 13.5034 6.78153 13.977
Au 24.6895 18.9678 8.48639
Pt 13.381 11.0859 12.4708
Au 4.85971 8.43572 14.1222
Pt 16.905 20.9938 20.0148
Au 24.2519 15.1979 21.9999
Pt 7.73531 15.5123 18.5512
Au 22.0141 5.68856 16.0762
Au 13.7437 25.6778 19.3992
Pt 11.7125 6.85481 11.8154
Au 16.2527 9.16463 7.08029
Pt 13.5671 15.8118 12.8748
Au 23.7736 21.4981 8.40196
Pt 23.8311 15.518 13.411
Au 13.9493 25.4896 10.1167
Pt 14.5245 13.7718 15.759
Au 16.8864 6.41744 8.12324
Pt 18.307 15.147 10.5806
Au 5.03214 14.614 13.8951
Pt 16.1191 15.9917 16.9314
Au 8.48926 11.4263 24.7532
Pt 14.9047 9.67299 9.4374
Au 12.1864 21.4669 4.86161
Pt 17.4193 10.5441 9.3077
Au 15.3674 4.35602 9.50419
Au 20.9925 12.4433 23.9172
Pt 12.6433 22.28 18.5395
Au 19.8686 18.7808 3.39801
Au 13.9731 5.26516 16.158
Pt 16.7191 11.2871 21.6467
Au 10.9531 15.1216 26.2268
Pt 17.8788 23.266 8.43024
Au 6.34268 7.5901 11.9665
Pt 11.0236 17.7569 9.2507
Au 18.0036 15.0119 3.88397
Pt 18.158 5.74554 13.8574
Au 7.10996 13.4257 20.3533
Au 20.307 7.91112 22.5915
Pt 6.86272 16.9339 14.2034
Pt 16.2596 22.0386 14.5987
Pt 16.1743 16.7821 22.5313
Pt 15.3764 18.3748 12.8354
Pt 9.15542 7.85051 16.5935
Pt 17.0448 11.2613 18.9962
Pt 15.6772 24.3465 16.988
Pt 11.1788 16.506 14.329
Pt 19.6167 20.5433 21.0922
Pt 19.9306 19.7443 10.0052
Pt 18.064 16.6988 18.8458
Au 3.60276 11.6152 18.2645
Au 9.98263 19.8537 5.0544
Pt 11.9531 16.3229 7.0715
Au 21.5152 13.3937 4.66575
Pt 11.2678 20.1384 13.9271
Au 25.8495 15.7364 19.9131
Pt 10.6499 13.2167 24.2051
Au 11.746 24.8419 8.73983
Pt 12.3795 21.6043 7.61002
Au 8.80936 24.768 15.4327
Pt 21.5776 21.5734 14.6078
Au 15.8114 6.23438 22.7558
Pt 18.4819 6.61408 19.6041
Au 5.86599 6.81588 19.6296
Pt 11.7417 7.07216 16.911
Au 10.8137 8.19371 22.3274
Pt 17.8401 23.8734 15.5883
Au 20.596 15.9687 3.9511
Pt 14.943 23.0272 12.5367
Au 11.0853 24.6531 19.2539
Pt 8.59884 20.2894 13.1281
Pt 21.5333 18.3094 12.5375
Au 26.0084 19.519 13.1239
Au 17.9269 13.7517 27.308
Pt 15.8892 11.3674 16.2031
Au 9.19787 4.47059 10.8573
Pt 14.2228 10.7534 20.5557
Au 12.6552 9.63082 18.2864
Pt 14.7698 12.233 23.1636
Au 7.0326 22.4019 13.7656
Pt 12.1324 20.0871 9.7691
Au 24.2542 21.8428 15.1886
Pt 15.1639 9.49739 14.1694
Au 22.447 14.7994 24.1006
Pt 20.4009 8.7585 20.0139
Au 18.4622 10.8749 6.73451
Pt 20.0419 13.7183 15.3551
Au 18.9612 21.4861 13.9727
Pt 11.073 9.57601 16.1916
Au 6.91042 11.5429 9.64791
Pt 13.3361 11.1431 15.515
Au 20.8369 4.8215 13.6621
Pt 7.2585 17.6015 16.7514
Pt 16.2987 18.2302 19.9303
Au 18.547 24.9421 10.5081
Au 24.8875 17.7674 21.3774
Pt 15.4781 18.9257 10.2844
Au 16.6403 23.5114 23.7364
Pt 11.0595 9.66741 11.6871
Au 6.70075 19.53 22.1379
Pt 13.6432 18.3572 8.43024
Au 6.97137 14.2283 9.38696
Pt 18.5043 12.872 22.8276
Au 13.9302 10.5971 25.3266
Pt 7.76638 14.5037 13.7033
Au 26.4446 16.8273 13.1934
Pt 17.8819 12.3794 11.1711
Au 18.8465 12.598 4.64904
Pt 21.7989 14.7119 17.0646
Au 14.0735 25.7959 7.24829
Pt 8.47182 17.0474 9.91252
Au 21.2544 8.9735 12.9322
Pt 9.57858 18.0665 17.7547
Au 7.68785 22.4855 16.5372
Pt 22.6856 19.5538 10.4669
Pt 7.28966 17.8854 19.6737
Au 17.7299 21.5967 25.4062
Au 13.3762 20.7828 27.2846
Pt 12.9333 13.4456 13.7437
Au 15.8548 12.6679 25.7498
Pt 20.5257 13.4952 21.3198
Au 14.9709 21.0186 3.60844
Pt 18.5893 19.3272 18.717
Au 16.0365 25.6142 11.7891
Pt 18.0399 18.6191 21.8206
Au 19.3351 4.09446 20.2315
Pt 12.9403 10.0076 22.8789
Au 11.8538 4.15917 10.9966
Pt 14.1428 17.4071 18.2222
Au 17.4812 17.477 3.02803
Pt 12.3424 9.10127 13.9702
Au 19.4154 22.6418 23.373
Pt 11.3508 12.0697 17.4055
Au 21.6615 22.0522 6.57487
Pt 14.4321 14.8208 6.84371
Au 25.6556 16.4478 8.519
Pt 15.9178 7.34147 20.2781
Au 23.3931 19.9057 6.1144
Au 14.5044 23.0381 5.30668
Pt 9.62478 9.46607 13.8475
Au 5.3928 19.3771 17.8105
Pt 10.6694 18.3925 12.0223
Au 24.0661 7.59387 16.2143
Pt 19.6232 9.89748 15.4203
Au 7.10262 18.2421 24.5107
Pt 15.8866 11.9266 7.73278
Au 22.817 6.77935 13.6777
Pt 21.3283 21.7893 9.35738
Au 25.3572 22.148 12.751
Pt 15.3922 9.00897 22.2148
Au 23.0095 23.4634 13.2326
Pt 22.8349 11.3551 13.7608
Au 17.1764 22.482 4.45873
Pt 21.7643 19.2724 8.11913
Au 12.8093 15.1634 4.6824
Au 22.4426 23.8889 15.8632
Pt 18.2338 16.0363 8.00948
Pt 13.5021 16.2873 15.6835
Pt 10.3834 14.2406 13.5331
Pt 16.1557 6.69276 17.7425
Pt 14.159 23.6318 14.9915
Pt 13.788 8.60522 11.769
Pt 20.2498 7.25634 14.7186
Pt 13.1752 8.26664 20.7054
Pt 23.8342 14.5088 9.25405
Pt 15.1128 13.0974 20.2254
Pt 14.0092 8.4001 16.2662
Pt 10.3013 23.148 17.0879
Pt 10.0191 20.0754 8.04498
Au 20.3885 24.0495 8.46829
Au 15.3847 2.57268 14.2062
Pt 11.9524 19.0601 6.6125
Au 16.0769 23.0848 10.2572
Pt 17.1411 5.64678 11.014
Au 4.4595 17.097 12.9442
Pt 17.5335 22.9904 18.2642
Au 25.6067 17.5064 17.9973
Pt 18.7046 13.9516 13.0699
Au 7.07738 11.2315 22.3359
Pt 18.3953 6.68807 16.4955
Au 10.6855 21.1477 26.9235
Pt 15.4184 19.4413 22.1252
Au 24.9178 14.2133 6.8027
Pt 12.2747 22.0694 22.9915
Au 13.173 19.0068 3.93261
Pt 19.9361 10.4643 18.0534
Au 5.89422 6.08017 14.957
Pt 12.4592 8.29775 9.56499
Au 13.3444 16.2953 26.2265
Pt 9.92189 15.4251 8.5641
Pt 8.75823 17.8726 22.4233
Au 12.9896 4.07937 13.7697
Au 19.255 24.8416 18.7991
Pt 13.9994 5.66193 11.5603
Au 23.1185 11.904 6.65134
Pt 15.9669 14.2325 9.26018
Au 8.47593 21.5793 21.9747
Pt 13.4784 13.7874 11.1095
Au 21.0674 6.15505 20.6558
Pt 10.2128 14.3599 18.4962
Au 16.5396 24.4894 6.38439
Pt 14.0735 17.4407 5.99827
Au 15.2585 24.9239 21.5846
Pt 12.2781 15.8028 19.8443
Au 5.06657 16.595 17.9379
Pt 17.391 20.5659 9.38122
Au 8.4225 9.00187 23.3858
Pt 19.6217 18.3132 14.4325
Au 13.9708 24.0482 23.7956
Pt 23.3966 20.2413 13.0752
Au 19.3386 4.29965 11.549
Pt 17.5427 14.6517 24.6904
Pt 11.4155 17.2455 21.9888
Au 20.8726 10.857 5.0913
Au 22.2868 17.9655 4.51214
Pt 12.3144 13.0327 19.7797
Au 13.0218 22.8737 10.4623
Pt 14.6449 20.9516 8.96783
Au 11.2733 24.4552 23.9759
Pt 19.3667 21.234 7.66731
Au 6.2755 12.8118 12.0353
Pt 24.0451 17.7036 11.6372
Au 24.3138 9.04577 13.7167
Pt 12.994 18.2646 13.7433
Au 24.5155 10.4112 16.1775
Pt 13.817 14.672 18.1094
Au 24.904 12.0242 8.89999
Pt 6.59876 14.8968 16.1656
Au 19.8332 21.5008 4.29907
Pt 19.8986 15.1472 23.4504
Au 7.60942 15.4939 7.12155
Pt 21.0462 16.9311 6.95993
Au 22.2859 21.4204 20.0235
Pt 9.26607 19.5101 20.2645
Pt 17.9468 8.80095 21.289
Au 23.2111 8.24333 11.2211
Au 6.82157 19.994 15.3947
Pt 14.1076 18.8398 25.5268
Au 11.2384 8.22762 7.26891
Pt 19.9276 11.1372 9.39463
Au 21.1433 23.867 11.17
Pt 12.5547 10.9777 9.89647
Au 16.5774 17.5747 27.873
Pt 10.6146 14.5299 21.4863
Au 12.9948 5.57839 8.92146
Pt 16.0033 7.42807 12.4644
Au 8.5641 13.9601 25.7033
Pt 20.6607 8.61956 10.0673
Au 7.06282 6.10511 17.4107
Pt 14.0649 11.9409 18.0043
Au 8.593 7.55008 7.63546
Pt 19.9603 22.7589 16.4377
Au 21.5253 20.9926 22.84
Pt 16.4768 16.3609 5.769
Au 13.8229 12.443 5.63838
Pt 21.662 13.9649 13.325
Pt 16.4285 21.7196 6.94529
Au 23.1644 9.92993 9.0885
Au 14.0804 7.52495 7.37331
Pt 16.0259 16.9565 25.3409
Au 11.5728 13.5552 6.7068
Pt 25.3266 15.3755 11.1684
Au 18.5463 18.9425 26.3503
Pt 11.5244 24.2076 14.8945
Au 4.51455 11.308 13.8808
Pt 7.77857 8.42485 18.7233
Au 8.96017 22.3945 19.3333
Pt 23.2968 22.1103 11.0243
Au 16.6723 4.66478 20.5605
Pt 17.1679 19.4757 14.3559
Au 25.9734 11.1183 18.4009
Pt 13.2579 15.6237 9.21738
Au 16.0282 20.1056 26.9942
Pt 18.433 11.9888 16.6756
Au 11.5082 18.5007 27.043
Pt 15.0751 7.1551 9.83031
Au 16.358 25.5255 8.88653
Pt 20.295 17.191 17.075
Pt 16.4539 14.1974 22.1978
Pt 18.6029 15.9913 15.0059
Pt 12.1557 21.7341 15.9369
Pt 8.61646 22.4945 11.4634
Pt 9.01188 9.63379 20.8688
Pt 11.5557 16.4487 17.4641
Pt 7.38818 18.3486 11.9794
Pt 20.0746 16.1479 12.4801
Au 6.44173 8.80748 21.288
Pt 7.90658 7.58919 14.2279
Au 21.1597 9.73013 7.42989
Pt 20.3206 12.9646 18.4731
Au 8.42222 24.7927 12.7884
Pt 15.1222 18.322 15.6836
Au 23.8759 17.1161 6.55515
Pt 15.8213 15.9809 14.2793
Au 9.26905 24.865 10.1551
Pt 17.5218 8.16887 10.2558
Au 10.3158 4.71506 13.2381
Pt 18.0518 13.6745 19.9892
Au 23.0796 17.3723 23.4791
Pt 14.8776 14.82 24.2808
Au 17.576 20.2193 3.00222
Pt 15.9785 18.8179 4.76665
Au 17.5764 26.2986 16.7699
Pt 12.0349 20.1996 24.8308
Pt 18.3582 17.2013 24.1346
Pt 16.2624 18.9968 7.4596
Au 14.4457 23.4274 8.04261
Au 17.6756 23.4958 21.0341
Pt 22.2569 21.3945 17.1933
Au 9.35165 17.7213 6.92904
Pt 10.6942 20.5566 18.0999
Au 15.0807 4.20316 18.3741
Pt 20.5092 17.9379 22.8008
Au 20.5764 7.92913 17.3804
Pt 22.1402 9.15987 15.4424
Au 7.01365 19.2212 8.90465
Pt 22.5389 9.63016 18.0884
Au 23.6201 13.5374 15.2777
Pt 15.2479 12.0292 10.5383
Au 7.88207 21.8842 8.84786
Pt 19.3094 19.8825 23.9373
Au 24.8815 8.66417 18.6194
Pt 10.8919 21.248 11.6578
Au 3.95619 9.85863 16.2146
Pt 18.7795 19.2902 12.1843
Au 8.37861 10.2513 7.68129
Pt 10.9023 23.933 12.0238
Pt 11.7448 14.2215 16.0201
Au 6.39442 15.7643 11.5575
Au 9.83164 15.246 5.66234
Pt 10.6389 8.09011 19.236
Au 10.4339 6.28059 9.30938
Pt 16.1297 14.2249 12.2054
Au 25.3316 20.4199 10.6572
Pt 10.3605 19.8353 22.7767
Au 11.2674 15.645 11.1947
Pt 12.2442 15.2012 23.7282
Au 26.5968 14.0805 9.04913
Pt 9.12577 18.1972 14.6871
Au 11.4826 26.2922 11.0666
Pt 11.8686 18.6041 19.5303
Au 25.941 13.0096 16.4735
Pt 14.1199 20.3962 19.8939
Au 24.5542 10.6247 11.42
Pt 20.1911 17.895 20.205
Au 5.27694 15.5691 20.3851
Pt 20.3822 15.4577 19.2927
Au 12.4199 25.6034 21.8513
Pt 17.3868 21.1701 22.6176
Pt 21.5782 11.7349 16.1657
Au 21.7613 19.1068 18.3971
Au 22.4691 18.994 21.3008
Pt 16.6297 19.2752 24.4005
Au 11.1449 17.3694 4.62254
Pt 16.2988 10.0799 11.8808
Au 25.5429 15.8116 15.6946
Pt 19.3111 7.18453 11.9945
Au 5.31132 13.7586 18.3228
Pt 15.9225 19.6387 17.8613
Au 20.2764 14.2673 25.9109
Pt 22.3197 15.5795 11.1993
Au 6.98988 15.5327 24.3074
Pt 20.5198 12.5403 7.16783
Au 10.5883 26.2838 13.6438
Pt 20.4256 17.2382 9.98431
Au 10.4339 22.5516 9.28298
Pt 15.8346 15.6071 19.8183
Au 16.3227 11.5511 5.11864
Pt 13.3209 19.7858 17.403
Au 12.0817 8.45967 24.8062
Pt 19.811 21.6424 18.7572
Au 10.851 26.0077 16.7727
Pt 15.0212 22.1318 21.8591
Au 22.7139 14.0896 19.8175
Au 24.319 19.5294 19.3525
Pt 21.8122 10.9645 11.2879
Au 26.4569 18.3672 15.5224
Pt 9.64195 10.4068 18.3665
Au 9.92552 22.2738 6.49722
Pt 11.1851 12.4344 11.8446
Au 21.6761 23.7273 18.4604
Pt 10.2273 11.013 22.7707
Au 5.36692 19.6236 13.2575
Pt 18.5181 15.9349 21.4161
Au 10.9654 10.9811 7.69248
Pt 9.77184 16.72 19.9758
Au 6.8091 8.82067 9.39525
Pt 16.6142 4.49184 15.8059
Pt 12.8529 19.6042 22.1775
Pt 9.60464 15.7206 23.6887
Pt 20.6092 19.5041 5.87581
Au 17.628 23.7209 12.8393
Pt 17.7718 17.7861 10.0782
Au 13.1542 6.82432 22.9326
Pt 9.04205 16.4254 12.5407
Au 15.2358 22.6665 26.0837
Pt 8.17825 9.73266 11.5384
Au 8.9031 13.0113 7.77784
Pt 8.96026 14.0703 11.0853
Au 18.5247 5.93484 22.1766
Pt 16.3569 13.5316 17.8673
Pt 8.56858 10.6937 16.0032
Pt 17.9755 8.83825 18.6139
Au 14.246 2.95838 11.6559
Pt 20.2493 11.6899 13.4203
Au 9.65518 5.72112 18.3054
Pt 14.1573 20.524 14.5999
Au 4.21028 13.0198 15.964
Pt 15.3046 9.33702 18.5041
Au 19.3895 6.15827 9.42836
Pt 13.8532 14.8908 21.7247
Au 21.5542 6.10702 11.238
Pt 10.6636 7.04572 14.4335
Au 11.212 10.9028 25.2992
Pt 17.7874 4.54095 18.0851
Au 5.06443 18.4854 10.7342
Pt 15.979 6.9708 15.0949
Au 25.2491 13.1591 20.0544
Pt 17.7428 18.083 16.4929
Au 23.5252 12.2472 17.958
Pt 9.52483 11.4966 10.064
Pt 18.381 13.2174 8.61465
Pt 19.6115 14.7855 6.19894
Au 7.83809 20.3614 6.54549
Au 20.1388 25.4275 16.2726
Pt 15.4625 16.3237 10.9574
Au 18.8491 8.40537 7.91494
Pt 6.71734 12.4806 14.9154
Au 15.7538 25.7529 14.5264
Pt 11.2573 13.451 9.42681
Au 5.00538 9.30923 18.8876
Pt 13.0007 24.4235 17.1786
Au 4.85213 18.4287 20.282
Pt 22.223 12.5333 9.20296
Au 26.4698 17.9113 10.6596
Pt 12.9627 23.327 20.8502
Au 26.1499 14.1458 13.6253
Pt 13.8124 17.3472 23.5182
Au 18.8942 22.2334 10.8775
Pt 10.9932 11.6744 14.4748
Au 6.03438 11.2607 17.1363
Pt 8.73515 11.9629 12.9601
Au 14.8133 16.7183 3.47383
Pt 13.7424 6.90735 18.5848
Au 6.51174 20.9036 11.148
Pt 7.19364 10.8824 19.4887
Au 14.8082 26.7731 17.1217
Au 20.3156 24.0066 13.8425
Pt 14.5644 21.0614 24.1835
Au 7.56262 5.28655 12.8252
Pt 14.27 20.3224 6.22889
Au 5.75114 13.8772 22.5925
Pt 11.2891 21.2192 20.6168
Au 14.8614 8.13667 24.6343
Pt 19.0313 9.99045 11.689
Au 9.9127 22.1048 24.3555
Pt 7.98928 20.0892 17.8821
Au 11.234 4.65485 15.9032
Pt 15.7171 4.90841 13.2913
Au 12.4758 22.7971 25.717
Au 14.0415 18.2346 28.0846
Pt 15.1428 23.1286 19.3645
Au 22.9124 8.33632 20.7226
Au 20.4168 23.2134 20.9196
Pt 14.8952 21.8705 16.9883
Au 5.9416 16.7051 8.92078
Pt 17.6573 21.0691 16.5764
Au 12.2721 4.69458 18.4611
