923
Atoms. Timestep: 20629
Au 25.643 22.8701 25.4276
Au 20.171 19.0239 16.9846
Au 16.0716 22.0495 24.2929
Au 18.6519 21.2915 17.645
Au 19.886 20.9328 15.0649
Au 11.3113 19.3094 19.5953
Au 21.4751 25.7823 16.6006
Au 15.5441 26.3059 10.411
Au 24.3577 17.1131 18.9382
Au 26.4808 15.7664 20.0726
Au 22.2732 14.1731 22.4121
Au 17.4999 19.0154 8.21524
Au 16.8991 21.7496 7.60889
Pd 30.5251 22.8695 15.2381
Au 25.5661 18.4649 16.9393
Au 22.6028 16.5278 21.082
Pd 15.4597 23.7839 8.91698
Au 9.44883 28.6943 18.079
Au 22.1033 14.8976 29.6343
Pd 14.3219 25.0465 26.2002
Au 19.3732 33.1903 24.3989
Au 22.7663 19.2221 20.6867
Pd 15.9701 16.3776 17.9998
Au 19.0261 16.5533 18.018
Au 19.9791 10.34 21.4429
Au 17.1229 19.2238 24.6076
Au 24.7813 20.8466 21.5896
Au 15.7775 22.7209 26.9558
Au 22.8206 14.8205 10.9944
Au 12.0345 19.5165 16.6002
Au 16.9205 30.8364 15.5323
Au 23.5026 18.06 33.1417
Au 22.9046 23.1952 25.575
Au 20.9885 13.7895 12.9399
Au 23.9475 16.592 13.153
Au 22.2669 16.0168 24.5154
Au 10.0652 19.6611 25.2914
Pd 11.9567 20.8483 14.102
Au 18.3738 20.3318 5.89781
Pd 25.2476 19.7792 19.1874
Au 20.8248 14.823 19.7289
Au 14.5483 20.9491 14.787
Au 10.8879 10.2436 14.2714
Au 25.6455 23.2876 20.5806
Au 26.6423 17.8671 28.0702
Au 17.112 16.307 24.1873
Au 13.9367 23.0619 19.1988
Au 5.60158 26.2086 18.5894
Au 25.7897 29.3536 21.7946
Au 19.8195 13.0273 22.0236
Au 23.8614 20.5807 26.3074
Au 17.0008 23.2042 11.083
Au 16.7195 18.6941 10.8332
Au 19.9946 15.7338 22.5364
Au 18.1167 25.4093 10.1137
Au 25.2658 28.5482 17.2676
Au 26.2656 28.6284 14.5188
Au 27.1317 16.6633 22.8909
Au 33.7365 25.112 17.7294
Au 10.6063 26.6474 10.2138
Au 11.7866 15.3999 23.1585
Au 5.49053 13.9319 17.1735
Pd 11.1404 18.3203 27.6031
Au 10.1665 30.9799 16.7077
Au 25.8331 32.9674 17.7983
Pd 15.1271 24.9984 20.8625
Au 29.4608 23.269 23.8208
Au 17.7727 6.62911 22.7002
Au 19.3767 15.1611 11.3329
Au 21.5898 10.0623 27.0199
Au 31.6596 17.9304 14.6287
Pd 21.5394 13.3533 25.0053
Pd 27.4358 16.3028 32.3007
Pd 19.7306 19.7855 24.323
Au 11.2168 24.7961 29.7031
Pd 19.8907 17.8931 8.5487
Pd 21.3854 21.1815 12.8407
Pd 21.2116 33.7061 20.2202
Au 23.5123 33.546 18.9504
Pd 26.9876 13.8899 22.3358
Au 23.2756 15.0903 26.8681
Pd 19.8255 21.3963 28.4383
Pd 17.2384 24.3238 25.1745
Au 18.8862 22.2181 20.3476
Au 27.7357 14.9644 15.7067
Au 14.7603 6.63521 14.8482
Au 28.4659 23.0491 10.4821
Au 23.3902 23.8617 16.1874
Au 22.2161 26.9796 8.72772
Au 14.9953 11.0916 23.9705
Au 17.5861 11.4563 22.7028
Au 12.2522 16.7294 25.5318
Pd 24.7285 19.7495 28.9159
Au 7.02291 25.8016 24.0145
Au 11.4102 16.7318 13.0926
Pd 24.7212 15.4625 22.3912
Au 12.8057 20.0563 9.68829
Au 13.4582 21.5011 12.0073
Au 17.7117 27.8825 14.5091
Au 20.7926 16.5772 15.8724
Au 29.5354 20.8294 22.3033
Pd 27.249 25.2462 19.2853
Au 19.449 31.4472 20.1321
Pd 27.5416 19.8917 29.6864
Au 18.6368 15.2891 7.20759
Au 10.745 21.5918 10.8825
Au 8.75645 25.326 21.6927
Au 16.9174 30.2835 19.486
Au 13.9406 27.6476 17.665
Au 22.209 12.2361 20.4105
Pd 25.7556 18.6505 12.3342
Au 28.2108 23.1801 26.2745
Au 22.5927 20.5197 23.5656
Au 33.5315 15.9918 25.4726
Au 13.309 26.8632 20.2476
Au 15.603 18.6509 19.3917
Pd 13.6086 19.5839 21.0994
Au 17.2284 20.8343 15.0524
Au 10.5224 10.031 22.7253
Au 10.5044 17.0876 18.2552
Au 19.7096 27.955 16.7028
Au 23.3165 22.8286 30.7711
Au 24.9527 29.9915 12.4463
Au 27.0345 27.6498 23.7775
Au 19.7991 11.2679 31.3459
Au 9.91826 17.2785 24.094
Au 24.3274 11.8278 18.668
Au 23.8544 7.85109 15.9842
Au 26.4953 18.6039 25.3694
Pd 25.3198 20.5973 24.1502
Au 14.6113 25.8525 13.5054
Au 14.7682 18.5821 16.417
Au 21.786 17.3685 18.3904
Pd 18.0706 20.881 10.0531
Au 21.7405 18.9125 14.6158
Au 6.05242 16.5125 17.7754
Au 21.6362 17.1576 10.5061
Au 32.0071 12.7715 14.7894
Au 26.5033 13.0779 19.7941
Au 20.0931 14.1206 16.7815
Au 29.0595 18.9109 27.1501
Au 18.8995 18.2172 14.4626
Pd 18.7015 20.2428 12.6236
Pd 13.1639 23.4306 13.9608
Au 18.183 19.5173 19.7275
Pd 19.6186 16.8763 25.1896
Au 17.5629 27.4191 8.41607
Au 33.5608 19.5297 13.4767
Pd 32.4177 20.3814 18.5365
Au 30.6723 16.7952 26.092
Au 29.0221 15.2104 21.0693
Au 32.7863 25.4299 23.3059
Pd 14.3754 29.4836 19.8867
Au 13.2403 17.6467 18.4465
Au 18.5443 18.0345 22.584
Au 15.8912 23.3239 13.7915
Au 8.10791 25.3433 26.4695
Au 9.62166 28.6238 15.3651
Au 18.605 26.141 26.5276
Au 26.9901 22.3437 22.934
Au 23.6238 32.011 13.7248
Au 25.3908 31.8632 23.0416
Au 9.0221 21.3848 20.1135
Au 17.5026 14.5332 22.1244
Au 24.19 10.0937 20.8846
Au 26.7411 10.377 19.0271
Au 28.3533 10.9229 13.2301
Au 22.2404 11.7265 30.1525
Pd 18.8092 20.6718 30.987
Au 13.5853 20.0743 31.3065
Au 20.0615 23.5318 25.9498
Au 17.3788 20.4425 28.5254
Au 14.6032 10.8116 11.5401
Pd 14.7219 30.8628 11.4157
Au 20.6548 19.8564 10.5429
Au 20.1272 28.3205 7.67
Pd 25.3512 21.1845 16.5335
Au 27.9241 16.4019 25.9295
Au 25.1192 12.6444 26.8821
Pd 24.1239 13.7629 24.4929
Au 31.0867 17.7458 28.6373
Au 29.4904 24.5389 30.4175
Au 24.1425 17.8869 26.7809
Pd 19.9365 22.4885 11.0976
Au 18.2097 13.4312 31.7287
Pd 22.5074 25.1844 29.9776
Au 27.7309 20.0344 17.8522
Pd 28.8734 21.914 12.9962
Au 14.5784 15.0672 15.9853
Au 30.8316 26.0587 14.0778
Au 26.1222 11.7216 11.9714
Pd 24.4333 23.8341 13.6397
Pd 24.0841 29.2865 19.6765
Pd 31.9403 21.6676 13.3904
Pd 25.1256 22.9787 10.5658
Au 9.9631 22.8726 22.3965
Au 23.9842 18.1927 23.7887
Pd 19.1607 15.7006 33.009
Pd 18.167 21.399 26.0643
Au 8.98224 13.621 25.6826
Au 21.9054 16.0574 32.2128
Au 17.233 26.0034 22.6295
Au 19.5126 24.9805 23.6798
Au 14.8653 22.6003 32.056
Au 7.36959 20.6547 25.9136
Pd 15.6754 13.5376 18.0791
Au 6.68725 21.7076 13.4989
Au 14.7351 18.368 8.75298
Au 16.745 11.6544 10.1371
Au 12.5097 31.704 18.0322
Au 17.0781 16.5381 12.4808
Au 23.8343 29.5792 14.9563
Au 23.0602 21.526 14.9455
Pd 25.3654 27.042 20.2089
Pd 22.2207 24.1084 18.7142
Au 22.4966 23.6505 11.8196
Au 21.5033 23.3243 7.57464
Au 20.9018 23.4041 14.694
Au 27.2383 24.9663 24.4831
Au 28.1065 30.0909 20.8421
Au 33.7707 13.3388 25.6106
Au 33.4788 23.3464 24.8952
Au 8.32178 13.2305 13.8756
Au 9.28078 11.9274 18.2581
Au 12.5935 8.46025 21.2904
Pd 15.9603 20.8762 17.5025
Au 10.8295 24.2219 8.5606
Au 8.55178 18.6888 19.8146
Au 15.2435 27.7933 22.075
Au 8.21958 18.0923 26.4284
Au 9.0292 20.1071 28.028
Au 17.0608 11.798 20.0662
Au 27.3888 20.9934 20.4744
Au 27.7122 17.1033 17.5404
Au 30.3775 13.2901 29.0467
Au 25.1764 18.0069 21.3949
Au 32.8232 17.4009 12.0522
Pd 21.4197 9.86047 19.0895
Au 26.9131 22.648 18.2719
Au 30.8294 13.4337 19.7215
Au 14.9249 14.2222 28.2437
Au 11.3845 7.79416 18.7754
Au 15.6343 5.95624 17.7603
Au 4.48055 21.6783 21.4509
Au 6.58897 12.0701 18.8407
Au 11.933 21.7916 20.8035
Au 12.6485 12.9393 28.713
Au 10.223 14.0746 28.2837
Pd 14.5698 20.057 23.5622
Au 24.4788 25.4459 24.8802
Au 25.8797 31.1345 15.7877
Pd 14.8844 30.262 17.3208
Au 27.0494 24.4372 31.5271
Pd 30.1901 24.1199 27.8934
Au 23.8506 29.2714 29.9284
Au 25.2011 31.7933 20.3445
Pd 20.475 29.5969 21.9031
Au 22.24 25.4967 23.1051
Au 23.527 13.5353 31.7646
Au 18.7505 22.2835 23.5566
Au 7.19093 22.8896 21.7751
Au 23.9233 10.5196 28.2345
Au 22.3534 7.28993 19.0947
Au 22.2943 11.3365 22.9237
Pd 22.0739 8.60637 21.6698
Au 28.0646 10.1305 15.8913
Au 33.9929 23.0091 19.2843
Au 23.4934 25.0586 20.7922
Au 17.3279 25.5098 12.8297
Au 15.6537 19.4703 6.33803
Au 19.2369 17.8535 11.5675
Au 22.0473 27.4815 28.6011
Au 10.56 30.7441 22.5153
Au 23.041 32.6611 24.4124
Pd 16.9632 32.3649 17.7436
Au 15.537 30.7476 21.9865
Pd 12.9619 13.9312 21.2137
Au 12.4005 29.4661 11.7854
Au 16.0298 18.7747 13.6915
Au 13.257 11.4647 13.962
Au 28.3714 20.763 24.9333
Au 21.8788 8.5259 11.6425
Pd 27.2093 19.3855 22.6571
Pd 23.7612 12.9802 13.0232
Au 34.6039 18.4372 21.6376
Pd 30.7218 13.3961 22.4248
Au 15.0548 21.8869 29.5277
Pd 18.3808 7.21956 17.8125
Au 24.9205 24.8157 18.197
Au 26.6448 12.813 17.0912
Au 26.4836 27.641 26.4604
Au 29.9071 20.107 14.6013
Au 27.978 29.2586 16.4796
Pd 30.2812 16.9167 12.5851
Au 18.104 25.2822 20.2098
Pd 22.5181 19.0075 8.70229
Au 22.0797 29.2816 12.522
Pd 22.2659 12.6986 27.6315
Pd 15.1727 25.3314 18.125
Au 12.2342 24.01 24.1365
Au 19.9106 26.9139 21.7453
Au 19.6587 15.8391 30.4693
Pd 15.7399 21.2689 20.2068
Au 18.925 14.014 24.6338
Pd 10.6356 26.616 19.9013
Pd 11.9379 14.0504 26.0994
Au 22.3625 21.8663 9.73387
Au 13.5925 8.80746 23.6905
Au 8.92315 22.3238 9.07459
Au 34.2423 21.731 14.9018
Pd 31.4744 23.9248 18.8986
Au 30.0098 14.8865 14.2649
Au 29.0146 24.2771 17.3684
Au 29.3715 13.682 26.3417
Au 31.2036 24.7744 25.4248
Au 4.44606 19.6796 19.6238
Au 14.682 15.5147 23.0216
Pd 16.9332 28.4802 17.1745
Pd 10.1777 23.9052 19.8142
Pd 10.3888 19.0445 9.32669
Pd 11.451 25.5442 13.9387
Au 5.83874 17.5046 20.3445
Au 11.5289 28.999 24.522
Au 10.2435 31.1204 19.476
Au 22.5954 30.2579 25.382
Pd 21.639 28.1162 23.8487
Pd 21.0651 32.1318 22.6221
Pd 22.5626 14.7767 14.812
Au 19.3985 19.0721 26.9
Pd 17.2114 6.24193 20.1006
Au 19.2824 10.4044 13.4969
Au 30.2294 10.4586 22.5957
Au 26.1844 9.28288 13.9968
Au 22.5476 18.1693 30.5438
Au 17.4188 17.8466 33.1162
Au 20.0525 18.1651 32.1849
Au 11.0503 19.9521 29.8762
Au 18.187 23.514 27.8486
Pd 21.1795 21.1578 26.032
Pd 16.4955 14.3594 13.9453
Au 9.99932 13.3972 10.4933
Pd 19.9019 27.3767 10.1687
Au 13.15 24.0184 7.16642
Au 20.0605 20.8749 8.05597
Au 17.3959 24.8934 7.26991
Au 28.5316 18.7927 32.2166
Au 29.0745 15.5781 28.2219
Au 26.7444 7.66454 19.5003
Au 24.6945 22.5905 27.9802
Au 25.9093 21.9643 30.3118
Au 25.8664 18.2216 30.9437
Au 26.6807 10.6157 28.5589
Au 20.9393 29.1767 30.3663
Au 21.3191 22.837 23.3802
Pd 31.899 14.9595 27.5602
Au 26.6682 15.7074 29.8355
Pd 18.0296 25.5047 29.584
Pd 24.2213 16.6531 29.1424
Au 23.4834 27.7229 26.0554
Au 28.4062 19.1003 12.5054
Pd 15.6271 12.4142 15.5581
Pd 23.0193 16.2732 8.31954
Pd 17.5027 14.6778 16.4859
Au 24.0864 12.4253 10.3489
Au 34.698 18.6692 18.7139
Au 23.0251 19.6385 17.2647
Au 19.1046 22.9138 6.24671
Au 29.2865 17.6699 10.3005
Au 21.0386 16.4489 6.52972
Au 22.7137 14.9502 17.5394
Au 18.5736 17.6718 6.02429
Pd 13.0851 25.515 9.3694
Au 17.0571 33.6325 15.3411
Au 4.77847 24.0689 20.3593
Au 12.3993 22.3202 30.5258
Pd 17.2471 15.1508 26.5908
Au 16.2829 8.68108 23.9003
Au 7.34997 24.4353 19.4366
Pd 14.0842 28.8501 28.5735
Au 14.998 9.71794 26.2703
Pd 23.5096 8.35922 25.9813
Au 9.63945 24.9668 24.2769
Pd 11.1978 21.4171 27.1913
Au 9.94975 22.3908 29.3971
Au 13.1003 23.3926 28.1175
Au 18.7421 20.1219 33.5845
Au 21.4742 20.893 30.6945
Pd 15.9808 16.4949 29.0623
Au 9.29738 15.1939 12.3082
Au 12.4195 14.2982 14.459
Pd 8.38888 17.2274 16.6336
Pd 17.677 16.398 9.54624
Au 12.2677 14.7798 11.4616
Pd 18.8287 23.2123 8.82109
Au 14.3737 13.4527 12.5699
Au 8.34 22.8454 11.7643
Pd 22.4159 28.8423 17.1106
Au 15.072 26.1806 7.70773
Au 20.6478 26.3661 19.1351
Au 18.0312 14.3485 19.3127
Au 16.0542 29.2746 9.76297
Au 27.5259 28.0105 18.8435
Au 25.466 31.9987 25.6911
Au 24.5397 20.1723 10.0488
Au 21.3599 34.356 17.3513
Au 27.3114 30.2009 26.5425
Au 26.6867 30.5581 18.5126
Au 30.1881 21.6344 17.6426
Au 33.2328 25.3684 20.4757
Au 29.1424 28.5311 25.2754
Pd 31.7055 21.7849 20.6772
Au 30.0279 28.5218 19.7515
Au 22.4434 31.278 20.3962
Au 33.7282 23.2033 22.0181
Au 31.0116 24.1867 21.7267
Au 8.71616 24.8042 9.99395
Au 24.4602 19.2927 14.5359
Pd 11.1332 30.3024 13.977
Au 13.6304 28.1686 9.67857
Au 18.0198 23.4023 15.9845
Au 6.83038 24.8641 16.3913
Au 17.4801 18.6543 17.09
Au 15.2688 9.42209 13.8394
Au 14.9911 24.5858 23.6168
Au 12.2869 24.6308 21.4624
Au 7.39738 27.4587 16.902
Pd 14.353 24.0667 11.5056
Au 10.6741 24.1455 27.0323
Pd 8.42177 23.3274 14.8404
Pd 23.2942 11.2428 25.4162
Au 34.7767 21.124 17.499
Au 32.3858 15.4724 15.6131
Pd 29.9706 18.8879 17.0426
Au 26.3419 8.21322 22.1893
Pd 19.9483 10.5067 16.514
Au 24.559 12.679 21.9021
Au 29.4094 14.8532 11.1737
Au 32.0975 11.6989 24.16
Pd 32.3237 18.1032 20.0608
Pd 29.9952 16.9984 19.2121
Pd 28.7425 17.4428 30.0303
Pd 28.8123 12.1412 20.9265
Au 33.436 13.64 22.8475
Au 14.2633 12.0292 19.6775
Au 15.0228 11.3487 28.7957
Au 12.4638 18.2002 23.1584
Au 16.3457 14.2776 8.3705
Au 10.7288 11.8436 27.0428
Au 10.7388 8.10443 16.1411
Au 6.99635 15.1069 15.3073
Au 6.43888 15.4199 22.1685
Au 18.929 8.921 23.5757
Pd 12.7537 19.4704 25.6768
Pd 16.2673 13.4686 24.5427
Au 7.91555 17.7316 22.3223
Au 6.70128 24.5951 13.4676
Pd 7.41914 23.1951 24.5844
Au 19.1725 27.8164 28.7803
Au 25.6071 27.1208 31.0304
Au 7.8537 27.2305 19.7477
Au 8.29245 22.7117 27.2637
Au 15.6363 30.0172 26.7269
Au 12.6076 31.4893 20.8096
Pd 15.6189 32.4429 13.4296
Au 8.11722 27.7974 22.667
Au 22.4033 22.1537 20.8933
Au 23.299 32.2892 27.095
Au 16.1492 26.9994 27.6211
Pd 24.1438 26.559 15.8408
Au 21.1035 29.2123 19.2795
Pd 27.2487 19.5279 15.0534
Au 19.3713 5.08471 21.2265
Pd 17.6378 14.3844 29.1775
Au 6.28001 21.8443 19.2
Au 8.36606 11.9096 22.9156
Au 24.5497 13.8107 29.2493
Au 20.8569 13.6227 31.9605
Pd 15.3468 12.8872 21.9741
Au 20.5091 6.79287 23.1201
Au 28.0713 9.07037 26.6575
Au 24.0077 12.8299 16.0962
Au 22.0051 5.75516 21.2414
Au 33.7516 13.6366 17.1016
Au 22.2975 10.4648 9.74399
Au 19.7872 7.63564 20.3584
Au 20.2561 20.3907 21.8133
Pd 19.4543 29.9698 14.676
Au 12.3667 29.5582 16.3621
Au 13.4526 25.3965 15.93
Pd 11.5115 19.2383 12.009
Au 28.5456 25.8962 12.2181
Au 15.0987 28.1058 15.2312
Au 11.2237 21.5712 7.95506
Pd 17.0176 32.8441 20.5731
Pd 23.2087 30.1928 22.6887
Au 19.632 23.8777 18.1632
Au 22.8593 27.3652 31.4596
Au 14.7732 32.229 19.3343
Au 19.0479 33.6904 18.6687
Au 21.5172 6.6237 14.372
Au 9.2013 17.9929 11.6148
Au 11.4691 10.3983 17.1556
Au 12.8218 10.3888 27.6494
Au 19.4631 7.94189 12.4202
Au 19.7059 12.164 19.3543
Au 18.5003 9.73867 18.6951
Pd 18.8137 12.5015 11.861
Au 11.0516 14.5594 17.2696
Au 24.5432 17.1614 10.4199
Pd 25.2092 16.178 24.9533
Au 17.2148 5.69085 15.6437
Au 25.606 9.88663 26.1632
Pd 25.4204 10.3749 16.4898
Au 32.5995 22.9647 27.4728
Au 31.1131 22.3977 29.748
Pd 29.3568 11.114 28.019
Au 12.0158 21.1419 23.5407
Au 23.8671 10.5782 14.2257
Au 33.3857 20.8627 25.8612
Pd 26.655 20.7713 27.1416
Pd 28.8567 17.4461 14.8193
Au 30.6287 10.3717 19.7065
Au 31.4994 27.4856 24.4304
Au 25.0247 11.5298 30.4801
Au 27.5684 23.5013 28.8838
Pd 28.5029 14.5778 18.4268
Au 22.9604 31.3079 11.0846
Au 32.2965 14.8889 12.875
Au 21.2444 31.8437 18.0507
Au 19.8441 5.40884 16.2106
Pd 22.1779 26.5301 11.4319
Au 26.96 26.3988 16.624
Au 24.8281 25.5719 11.4453
Pd 27.7132 13.77 13.0651
Pd 23.4188 24.6213 9.31076
Pd 21.2236 16.6268 13.1216
Au 21.4724 33.7167 14.7287
Au 17.4175 22.8861 30.3959
Au 16.1747 27.0247 24.8744
Au 8.6455 24.7 29.0089
Pd 13.7276 24.6844 30.6421
Pd 10.4878 17.1399 21.3011
Au 15.597 24.6294 28.8088
Au 9.88021 16.0163 26.5807
Au 20.0769 18.728 29.509
Au 6.78812 13.6041 24.0688
Au 21.3623 25.9401 25.6419
Pd 14.5344 15.2012 25.8272
Au 15.3242 20.1125 26.4956
Pd 8.16485 17.1353 13.8777
Au 13.2005 12.6712 16.6625
Au 5.04204 20.1427 14.9968
Au 4.20721 18.4688 17.1549
Au 15.4266 15.1434 20.3819
Au 9.74409 28.9113 20.8956
Au 8.24931 14.5265 17.6942
Au 16.6141 16.7923 15.2705
Pd 13.2256 18.5391 14.1645
Au 15.6774 17.9216 22.0826
Au 10.5236 12.4971 21.3238
Pd 18.0068 25.9648 17.6192
Pd 26.1925 25.9425 13.9719
Au 26.8121 21.4655 8.86608
Pd 31.7761 21.9304 23.4728
Au 34.4252 16.2657 19.9553
Au 34.2294 20.7354 20.5366
Au 29.5495 26.0969 23.491
Au 29.7841 17.8795 21.746
Au 10.0924 16.0982 9.87014
Au 10.7278 14.8881 19.9816
Pd 14.1943 12.3845 26.3606
Au 16.9616 29.6622 24.2124
Au 16.8192 29.999 13.0158
Au 15.3331 19.0624 29.4172
Au 8.32419 10.703 20.5392
Au 15.2652 23.2267 16.4242
Au 17.7852 28.7573 21.776
Au 18.3958 32.2625 13.4029
Au 20.6495 28.4998 26.4653
Pd 24.6609 29.8737 27.3596
Au 20.614 24.2788 21.0558
Au 16.8923 23.2844 21.8667
Au 19.5219 12.0618 26.8252
Au 19.2734 9.17072 26.2384
Au 19.0665 5.66398 13.683
Au 20.4435 5.41175 18.8244
Pd 21.5114 9.23127 14.4192
Au 18.7223 12.7778 14.7093
Au 33.6274 13.6806 20.0388
Au 24.6902 15.9537 31.8526
Au 16.7612 15.6439 31.5734
Au 15.5947 13.2796 30.6858
Au 28.791 28.2868 27.8986
Au 24.0431 20.2904 31.5759
Au 24.2337 25.0887 32.2639
Au 16.3027 20.1932 31.8993
Au 18.6749 13.3148 9.18391
Au 6.81661 19.1421 12.7483
Pd 10.56 22.9762 13.3878
Pd 20.0016 24.8618 12.3778
Au 14.0013 15.67 8.24762
Au 13.8801 17.3949 6.2173
Au 30.4932 23.9831 12.5899
Pd 29.0558 18.1879 24.2737
Au 31.636 12.2725 26.8326
Au 22.8015 22.4499 33.4075
Au 25.3741 22.7596 32.8973
Pd 12.3916 15.6796 28.2005
Pd 27.5786 11.7253 26.2084
Au 21.6512 20.0263 33.3082
Au 31.0037 15.6547 30.162
Au 17.4188 22.4626 33.0181
Pd 25.989 15.2021 27.3373
Pd 31.6026 20.3492 27.8772
Au 31.8723 15.6228 21.237
Au 26.2853 13.6638 31.5071
Au 20.1415 22.3332 32.7974
Au 24.4832 20.4008 34.1609
Au 28.6639 22.0156 31.0543
Pd 22.1492 19.8149 28.2073
Au 17.2325 20.4139 22.1851
Pd 22.0401 22.7754 28.2529
Au 13.0652 26.3014 28.3723
Au 25.4973 17.203 7.89181
Pd 14.0115 10.0688 16.1639
Au 29.0509 12.5422 15.2859
Au 24.4192 22.4225 8.03053
Au 22.8905 18.933 12.0645
Au 30.2754 12.7508 12.6713
Pd 32.7054 22.7601 16.8533
Au 27.52 16.4534 12.4873
Pd 25.4642 14.7474 11.7416
Au 21.0738 12.7809 10.2863
Pd 18.9513 30.4152 17.5354
Pd 24.0472 21.3452 12.3893
Pd 32.1974 20.3383 15.8776
Au 14.8768 28.3022 12.284
Au 29.7672 25.7806 19.7507
Au 21.5034 29.4781 9.783
Pd 28.1138 21.9687 15.8537
Au 22.6236 20.9266 6.82685
Au 23.954 28.3301 10.5598
Pd 21.6313 27.9575 14.8067
Pd 11.3072 26.9924 16.7158
Au 16.2059 24.9932 31.6856
Au 25.7537 25.4254 22.3095
Pd 21.6178 17.0775 27.9002
Au 21.5521 9.05622 24.3825
Au 4.85951 23.718 17.7141
Au 13.2037 20.2761 28.3504
Au 9.93854 22.3348 25.0517
Pd 21.8426 18.5613 25.6154
Au 18.8188 16.7108 28.1045
Pd 10.7451 26.951 22.714
Au 13.4956 22.1609 25.613
Au 17.6846 18.0712 30.4832
Au 7.57742 16.0494 24.7351
Pd 15.2734 26.9944 30.1408
Au 19.2918 30.4715 28.2064
Au 13.9455 15.4032 30.4928
Au 16.8229 29.1472 29.1341
Au 6.12242 26.0603 21.481
Au 13.903 27.8011 26.1556
Au 14.3489 13.3317 9.85592
Au 8.16928 16.1064 19.9126
Pd 9.38893 19.6943 17.5431
Au 9.11997 9.16373 18.3562
Au 19.2646 25.6523 14.9952
Au 15.4956 23.5071 6.16429
Au 12.2614 16.7251 15.9571
Au 16.3085 16.7396 7.11463
Pd 16.5634 11.7841 13.0974
Au 23.3287 18.0845 6.3471
Pd 10.3138 18.5175 14.8133
Pd 16.1216 21.0452 12.3568
Pd 14.986 16.1691 10.6772
Pd 14.2295 18.8038 11.6695
Au 12.8088 8.44676 14.3939
Pd 13.0051 22.7569 9.58875
Au 11.615 16.8814 7.76751
Au 22.6876 13.5674 8.33926
Pd 17.5686 27.8759 11.4419
Au 12.5103 28.967 21.9084
Au 16.8784 33.5117 23.2959
Au 26.4574 27.703 11.9187
Au 32.0721 19.5083 22.3043
Au 29.0201 20.3626 10.1174
Au 34.2481 16.8588 14.239
Au 18.6793 28.1721 19.3209
Pd 31.3573 26.9998 21.5833
Pd 29.2413 22.8005 19.9142
Au 31.2072 19.5123 25.049
Au 25.0835 19.8019 7.48018
Au 29.748 28.8655 22.6634
Au 23.6429 33.2181 16.1812
Au 28.6009 27.3743 14.5255
Au 31.4209 25.2269 16.4714
Pd 26.6408 10.9318 21.7894
Au 34.3123 20.9249 23.2851
Pd 26.1582 17.0532 14.7684
Au 32.4341 17.9035 17.3001
Au 28.8668 26.0113 26.4521
Au 26.5584 29.0034 29.1053
Au 14.1617 22.4569 22.1458
Au 10.0002 21.4064 15.6903
Au 12.5636 27.9417 14.2444
Au 14.0907 21.471 7.38132
Au 12.7208 26.6539 11.773
Pd 22.4456 27.6609 21.1089
Au 19.9063 25.6757 7.57634
Au 27.5543 26.2774 29.1919
Au 4.22834 21.1478 17.3551
Pd 9.27692 20.5048 13.1196
Pd 17.9746 28.8157 26.533
Au 19.3878 32.6348 16.0468
Pd 9.16576 25.3275 12.5161
Au 11.1196 21.8301 18.2651
Au 19.115 33.9069 21.7689
Au 24.2193 27.5341 23.0953
Pd 12.8236 22.3036 16.4068
Au 13.2884 26.6628 23.5238
Pd 18.5174 22.8254 13.3778
Au 8.23638 20.2943 10.6518
Au 27.4772 13.1948 28.7249
Au 27.1872 16.0628 9.81809
Au 34.6146 16.289 17.0403
Au 27.6164 18.2414 20.0733
Au 34.5757 18.9552 15.9352
Pd 25.4778 15.2939 17.2746
Pd 30.1134 16.145 16.7398
Pd 30.8483 13.5525 17.048
Au 30.7551 10.7606 16.5882
Pd 26.8205 18.7759 9.75395
Au 32.5069 11.7244 18.4144
Au 18.9327 8.04229 15.1813
Au 31.51 14.3509 24.8231
Pd 29.9588 19.8091 19.7343
Au 28.6726 12.3504 23.7846
Pd 26.8973 14.092 25.0068
Au 32.4109 11.6029 21.293
Au 32.9648 18.2367 26.8238
Pd 29.2281 15.2823 23.8126
Au 31.6349 16.9753 23.5737
Au 10.7809 12.7454 12.9852
Pd 21.3551 18.0898 22.9376
Au 10.2773 19.678 22.1017
Pd 25.3261 14.598 14.5085
Au 7.80423 19.5923 15.2336
Au 13.4144 7.54635 16.9648
Au 4.68412 18.9951 22.3749
Pd 19.9484 11.3164 24.2877
Au 10.8111 24.1165 16.1341
Au 11.8662 14.251 8.85605
Au 19.9003 27.4376 12.9142
Au 17.9825 4.60814 18.1075
Au 11.4182 24.2638 11.2715
Au 12.4357 19.3241 7.15211
Pd 13.4559 13.3178 23.9464
Au 5.01138 23.15 15.0467
Au 13.4958 9.57205 18.9222
Au 5.79234 14.5874 19.7065
Au 6.50694 18.653 24.3366
Au 10.3122 12.5271 15.6907
Pd 18.9507 27.6589 24.2146
Au 13.1149 30.5886 26.1556
Au 5.88573 17.6203 15.2417
Au 12.8012 17.8237 29.8933
Au 16.148 27.3375 19.5769
Pd 22.0132 30.1974 28.117
Au 14.5368 33.1366 22.011
Pd 13.2084 16.7252 20.9509
Au 8.95282 26.059 15.0656
Au 9.2644 27.5248 25.1881
Pd 26.1458 25.0232 27.1034
Au 20.4927 25.1731 28.2063
Au 21.555 24.689 32.4698
Au 11.8988 29.0354 19.0437
Au 25.2066 29.5564 24.662
Au 15.3137 31.8666 24.6521
Au 20.297 26.5493 30.904
Pd 23.2449 26.8295 18.5525
Au 28.0096 27.2258 21.3419
Pd 31.9259 26.8413 18.6776
Pd 16.7923 17.8637 26.8551
Pd 8.28044 20.7432 23.4015
Pd 16.2094 8.23735 16.3607
Au 19.9981 13.1169 29.3328
Pd 8.28359 13.5093 20.3816
Au 5.63466 21.2353 23.7837
Au 24.7754 6.29326 18.1508
Au 17.5379 8.95681 21.223
Au 6.1299 12.6382 21.5838
Au 17.2246 9.88974 27.8122
Au 24.3492 9.51718 23.5376
Pd 17.6103 11.6924 29.7325
Au 24.4009 8.92014 18.5256
Au 14.9926 17.6692 31.7063
Pd 22.7244 10.1804 16.7099
Au 34.1482 16.1366 22.782
Pd 26.2508 12.0515 14.5639
Pd 25.8239 11.7459 24.1628
Au 21.5073 12.1209 14.9961
Au 22.4701 5.66899 16.843
Au 21.0082 31.8173 12.9414
Au 12.4717 17.2681 10.2682
Au 14.7221 32.618 16.1172
Pd 13.5812 20.4719 18.5261
Au 12.2603 24.9661 18.3817
Au 22.3168 25.509 13.9327
Au 12.8317 32.0845 12.7918
Au 20.8636 24.727 9.8352
Au 27.6606 30.3834 23.7142
Au 12.8748 31.518 23.5229
Au 20.2122 31.8021 10.3944
Au 29.6035 27.1081 17.1935
Au 16.851 23.3047 18.7433
Au 17.8712 31.5962 25.9745
Au 19.864 30.3029 24.5291
Au 20.8365 19.0831 6.1787
Au 24.1216 23.1771 23.0257
Au 20.7172 32.0073 26.4238
Au 20.9058 20.4231 19.193
Au 24.7406 27.147 28.5024
Au 19.7089 10.2242 10.6831
Pd 15.0936 9.99915 21.3813
Au 15.9463 8.36665 19.0997
Au 10.8177 12.8242 23.9371
Pd 15.8984 10.7256 17.8364
Au 17.2463 9.5389 11.7875
Pd 23.5305 17.0503 15.9512
Au 13.8035 6.75289 19.5611
Au 12.839 11.2393 22.1088
Pd 10.9935 10.1983 19.9919
Pd 28.1918 24.4535 21.7071
Au 25.0722 14.62 9.01785
Au 21.7883 11.1428 12.3561
Au 23.8156 7.91808 13.3696
Au 16.7368 14.128 11.1571
Au 20.9738 7.9666 16.9374
Pd 23.9807 14.4137 19.8379
Au 24.2362 9.90045 11.5956
Pd 18.014 12.233 17.3135
Au 26.5542 7.98801 16.7994
Pd 26.6913 20.542 32.4375
Au 26.1091 18.22 33.6026
Au 28.923 11.8347 18.1771
Pd 23.3331 25.103 27.4137
Au 28.531 9.20388 20.9208
Au 30.2017 19.8272 30.2357
Au 15.2139 7.31434 21.7718
Au 23.437 33.3186 21.8155
Au 24.3567 7.12365 20.8759
Au 33.8371 18.4988 24.2997
Au 25.9008 7.6671 24.7731
Pd 20.1707 17.7639 20.4257
Au 28.8077 14.4374 30.8974
Pd 30.7094 22.0444 25.9387
Au 27.7377 9.68778 24.0301
Pd 14.2967 29.3205 24.056
Au 29.9878 10.5896 25.4287
Au 23.9522 22.0744 18.6298
Au 23.3642 7.01207 23.4974
Au 29.1739 21.4439 28.1862
Au 34.3612 14.181 14.5402
Au 31.059 19.4837 12.0211
Au 32.2463 15.4965 18.4962
Au 17.7163 27.5123 31.1868
Au 12.3077 12.0352 10.9592
Pd 24.045 27.4732 13.2295
Au 28.8902 8.95353 18.1528
Au 23.906 31.0456 17.7008
Au 17.368 10.3659 15.4083
Au 26.9022 23.8126 12.4463
Pd 19.0023 15.4188 14.186
Pd 32.7385 24.0315 14.4164
Au 16.9448 7.37067 13.4621
Au 18.28 31.3864 22.5792
Pd 20.6148 15.2137 8.95221
Au 26.1295 21.7062 14.0098
Pd 26.764 21.0494 11.5033
Au 26.1286 23.8794 15.8538
Au 27.2868 13.4086 10.314
Au 28.5509 24.5719 14.6233
Au 6.75794 20.1014 21.2774
Au 8.71856 22.935 17.67
Au 6.7364 21.7609 16.4377
Au 20.3407 14.7692 27.0081
Au 12.3061 10.7932 24.9902
Au 10.0695 26.6638 27.924
Au 16.8602 12.5723 27.2025
Au 11.6715 26.3152 25.7097
Au 14.7897 17.6823 24.7859
Au 21.4324 22.015 17.1038
Au 19.7733 10.2934 28.8944
Au 12.2273 32.2526 15.3857
Au 9.43264 10.797 25.0649
Pd 20.208 23.4492 30.2964
Au 5.1869 23.9386 23.0849
Au 18.7747 24.7461 32.2473
Pd 17.402 10.8584 25.2702
Au 25.1469 24.7108 29.6866
Au 14.0519 17.622 27.4348
Au 11.6225 28.6676 27.279
Au 13.3689 14.9339 18.5971
Pd 19.3828 29.8504 11.9265
Au 9.09158 14.8112 22.7226
Au 17.3922 31.5552 10.9433
Pd 11.817 12.5393 18.9521
Au 6.62321 19.2878 17.8528
Au 14.3244 16.2053 13.3681
Au 10.2816 27.8144 12.7659
Pd 17.5664 16.8342 20.3566
Pd 30.8546 21.9589 10.9969
Au 7.41073 12.3755 16.2143
Au 18.6835 29.8039 9.32193
Au 8.871 10.1636 15.9656
Au 16.3667 25.6471 15.5641
Au 9.80922 15.3469 15.04
Au 14.1172 30.4129 14.3106
Pd 15.3385 21.0492 9.78745
Pd 9.2047 25.6767 17.8101
Pd 21.8098 12.405 17.7573
Au 21.7168 31.0913 15.5367
