923
Atoms. Timestep: 20715
Au 22.3033 29.2376 28.4207
Au 24.3113 16.2389 15.6692
Au 8.8216 13.617 13.4414
Au 14.6885 7.8109 17.7156
Au 20.1738 25.0243 28.0599
Au 25.4904 12.0483 25.3206
Au 29.5783 31.0595 16.0652
Au 11.0705 29.1443 20.3634
Au 31.5485 20.6784 16.5447
Au 23.289 18.7655 23.5632
Au 18.1697 21.2536 22.4111
Au 21.9706 11.6533 17.2213
Au 20.9214 13.2769 19.1213
Pd 29.2252 23.4912 28.2399
Au 19.5908 16.1519 29.7661
Au 31.4854 30.3246 17.8049
Pd 10.8547 9.87643 20.3549
Au 6.70448 25.7704 20.1958
Au 22.2983 10.6248 32.6652
Pd 16.2105 11.7919 29.9357
Au 29.1297 26.4617 16.8078
Au 23.987 10.0579 16.2944
Pd 14.9978 18.9249 19.2662
Au 22.5198 13.6491 7.61871
Au 14.0707 8.93193 27.8429
Au 7.21985 27.4645 22.1914
Au 19.6827 14.2657 33.8017
Au 19.3247 16.4497 25.049
Au 22.185 32.8686 11.8281
Au 27.8174 15.5684 9.37712
Au 16.7845 20.1863 9.30562
Au 24.3162 24.1689 22.7384
Au 30.4919 14.9475 22.3466
Au 14.9612 26.819 8.07704
Au 21.7317 17.8121 11.0289
Au 10.147 10.8046 17.9848
Au 30.4984 19.0856 11.3023
Pd 10.942 14.612 9.34296
Au 21.7475 22.7186 10.1784
Pd 20.5346 24.1511 25.5057
Au 8.67452 25.4538 15.9644
Au 5.71948 20.3649 21.2384
Au 8.92825 17.9871 10.8145
Au 15.8808 29.5583 14.9637
Au 18.8516 23.5817 30.0133
Au 24.8091 25.5618 25.3299
Au 9.39659 15.0142 18.6121
Au 6.6358 26.2778 24.5236
Au 23.0328 32.1608 14.2711
Au 26.8113 10.8616 23.2618
Au 18.8384 28.1633 19.6054
Au 11.6402 21.6285 31.1569
Au 28.9574 14.5186 14.6326
Au 12.7151 12.5727 9.19906
Au 23.5534 23.0192 12.2695
Au 24.4779 20.7714 27.1915
Au 27.1907 22.0241 26.8473
Au 7.16219 14.2031 17.0613
Au 29.2689 19.1498 15.8043
Au 12.4002 15.0404 18.9656
Au 9.06165 21.5004 21.4329
Au 5.80203 17.6531 19.4824
Pd 17.5589 8.97613 17.5594
Au 13.223 20.8777 19.2531
Au 23.1062 14.6512 19.8073
Pd 9.80048 19.6656 27.2329
Au 25.5626 24.7843 13.946
Au 16.5096 7.37092 15.7555
Au 21.6804 8.0496 23.1762
Au 17.0047 26.2889 6.37945
Au 28.1547 8.91644 21.9992
Pd 15.2483 15.3818 27.8866
Pd 22.4095 12.8958 31.1941
Pd 14.6179 19.56 25.6674
Au 12.0016 31.5167 19.452
Pd 19.3745 20.3425 13.2305
Pd 17.7053 29.9592 12.9147
Pd 19.5351 26.8642 7.02962
Au 15.2588 24.6777 17.2739
Pd 13.6039 30.279 13.3354
Au 28.0427 9.09035 19.3619
Pd 21.1333 16.9459 22.9245
Pd 7.78631 23.8503 25.2869
Au 14.9232 18.2584 5.35458
Au 30.6099 17.5342 21.5265
Au 23.2313 8.78456 28.375
Au 19.1029 18.7723 22.8944
Au 26.5677 20.3123 17.5594
Au 12.5342 23.4246 23.8919
Au 7.1677 24.5843 22.5598
Au 5.61978 22.0846 25.3876
Au 6.85538 17.2954 24.3357
Pd 17.976 15.6878 27.4878
Au 9.7696 22.296 26.416
Au 8.39936 15.402 25.7732
Pd 20.368 17.682 32.1751
Au 8.06813 17.0761 20.8766
Au 18.1998 21.2098 4.30351
Au 18.9291 25.2466 4.90056
Au 23.3819 16.3959 6.68635
Au 29.5722 17.3319 13.614
Pd 14.6051 13.9663 30.0872
Au 10.6597 17.1799 8.60348
Pd 21.5574 23.5423 23.0073
Au 17.5546 14.175 7.25137
Au 19.6419 12.4395 7.71777
Au 10.5612 27.69 25.826
Au 17.6457 22.5777 12.6738
Au 10.0813 20.8659 24.0078
Au 11.1324 14.4398 25.5887
Pd 22.6408 14.8441 14.0511
Au 21.5159 17.0511 16.0232
Au 31.4336 12.4376 22.2415
Au 28.4186 19.0836 22.523
Au 11.1345 17.3406 31.3766
Au 16.2924 22.6397 28.6476
Pd 16.1862 24.1901 14.5794
Au 16.9113 23.0173 9.83136
Au 21.8321 20.6074 12.1941
Au 19.7845 22.095 15.1019
Au 14.1246 23.0663 5.71937
Au 5.76283 19.7729 26.8065
Au 13.8769 22.9833 21.2201
Au 28.4106 11.3521 25.471
Au 21.7019 7.96997 25.9634
Au 20.8668 16.1623 18.6531
Au 22.023 18.3086 5.18299
Au 20.5247 10.9468 30.5661
Au 20.4732 28.8538 16.9877
Pd 24.5622 12.3061 32.4955
Au 7.03163 20.5089 15.2109
Au 17.2416 25.1877 11.9868
Au 17.7432 24.5037 18.9291
Pd 15.414 12.5559 10.574
Au 15.1885 6.9602 22.905
Au 10.516 16.9955 26.5034
Au 19.2962 12.0019 23.6561
Au 27.6558 11.4745 20.6317
Au 18.7541 8.20929 19.8641
Au 23.735 10.6591 10.9293
Au 22.6435 29.3221 15.143
Au 17.4889 27.1882 13.9352
Pd 26.8452 27.8728 18.4479
Pd 28.667 12.9065 22.7187
Au 11.2486 14.792 30.5246
Pd 20.569 20.8412 19.9198
Au 15.4094 27.0125 15.9306
Au 24.6199 12.0208 8.76118
Pd 18.3674 30.846 15.4418
Au 27.2583 16.7344 14.9795
Au 23.9874 15.5553 30.6759
Au 29.3249 29.6259 13.497
Pd 17.7215 25.5858 16.3692
Au 12.3808 19.0003 27.1019
Au 13.0806 15.1063 7.90885
Au 10.4339 12.551 29.0958
Au 32.167 23.5075 27.9433
Au 9.41389 18.2972 24.5459
Au 12.5909 9.94307 13.4664
Au 22.4898 25.9848 21.7663
Au 8.08257 19.1981 13.1415
Au 15.3822 28.4105 12.5753
Au 18.4395 14.7702 19.0824
Au 20.0107 31.7154 10.7399
Au 10.5765 18.5693 21.9044
Au 25.8925 14.2209 10.9332
Au 32.147 28.2426 22.5864
Au 25.2939 10.3282 13.3559
Pd 23.838 27.8281 26.5369
Au 15.1461 30.0804 25.7368
Au 15.7751 29.9968 22.9846
Au 8.42066 22.6396 16.1325
Au 11.8248 9.32217 26.3488
Pd 24.2565 12.7615 12.5436
Au 13.2971 20.2893 6.15497
Au 14.0209 27.1861 18.3698
Pd 15.6401 20.8615 21.1281
Au 27.7063 11.1359 28.1085
Au 15.6197 16.2282 12.0897
Pd 24.1899 27.0398 14.5891
Au 20.9418 5.77521 24.3759
Au 22.7959 25.3164 27.3935
Au 26.8179 19.2007 27.0878
Pd 24.6609 13.2138 29.6338
Au 24.3333 11.9454 22.3348
Pd 30.8119 20.0882 22.9829
Au 20.2881 17.6632 13.4594
Pd 19.3612 24.2101 10.3664
Au 6.67734 22.7867 20.4369
Au 32.0186 15.4974 17.4766
Au 17.2156 11.2084 12.4113
Pd 17.4237 19.1156 6.24106
Pd 25.6262 17.6718 13.0269
Pd 25.8317 10.5805 18.5298
Pd 9.78564 23.4749 11.1746
Au 18.8102 22.6844 27.1473
Au 28.6353 20.3241 25.0404
Pd 29.8615 29.5566 23.2141
Pd 18.451 11.0309 28.8506
Au 31.9978 15.5215 24.6443
Au 23.2319 11.792 19.7283
Au 15.966 32.3394 24.3833
Au 23.6139 31.0779 23.1101
Au 23.7673 21.5341 23.0336
Au 22.9456 22.4011 32.0387
Pd 23.7442 15.9408 11.7484
Au 7.07005 17.6596 15.0762
Au 10.878 23.7451 15.4046
Au 10.3267 24.4026 17.9568
Au 15.3164 15.8044 6.56196
Au 25.6278 34.4268 20.6657
Au 31.9627 17.2569 12.6943
Au 29.3565 26.8637 19.4466
Pd 11.3579 22.4708 13.1242
Pd 17.4954 25.0984 28.2222
Au 20.0745 26.6498 15.0867
Au 27.4993 30.8294 24.1143
Au 24.9545 26.9685 22.8863
Au 6.06644 19.0073 17.2365
Au 31.5144 19.6929 28.3105
Au 21.803 32.5001 21.419
Au 12.1763 22.0084 10.5487
Au 10.8003 10.5656 15.3996
Au 16.6532 19.1075 3.54851
Au 21.1727 9.79744 11.1861
Pd 26.0139 23.2253 11.2751
Au 17.464 6.62843 24.3348
Au 16.5982 12.2013 24.8531
Au 12.8609 27.7242 11.9142
Au 26.4479 16.2389 33.5801
Au 14.7471 22.4564 26.099
Au 7.83264 20.4252 25.391
Au 24.5725 23.0937 18.4772
Au 22.7864 22.9914 7.24343
Au 14.2224 10.0826 30.4399
Au 25.7421 22.9196 24.7183
Au 26.9132 23.7787 21.3157
Pd 21.9575 27.549 13.0835
Au 26.2667 14.2217 31.7139
Au 12.7155 21.1241 15.1825
Au 9.65396 23.419 23.3104
Au 5.56958 17.7973 22.0696
Au 10.8531 26.1033 28.0124
Au 17.802 10.8575 19.5197
Au 14.041 11.8212 28.3295
Au 13.338 16.4217 26.2553
Au 9.93747 10.9151 25.0394
Au 19.8887 25.8451 23.0118
Pd 22.233 17.2953 29.6334
Au 12.5548 12.2597 30.6737
Au 22.3973 24.7795 18.636
Pd 15.5329 29.4565 17.6215
Au 31.2778 27.9985 25.0588
Pd 24.5287 21.5294 16.173
Au 9.15804 17.4178 29.0463
Au 26.5146 26.3307 16.0123
Pd 10.5819 24.8048 25.5946
Au 25.5253 18.4215 19.6796
Au 14.0762 10.7128 25.4065
Au 14.1764 21.1325 23.5096
Au 15.0885 21.6843 7.85092
Au 12.7887 7.78893 22.0002
Au 19.5056 13.4393 28.2905
Au 8.86138 12.3874 15.9885
Pd 23.8741 12.6727 15.0914
Au 23.8929 6.48535 19.343
Au 31.9187 17.9856 15.4905
Au 21.1353 12.6203 14.7621
Au 25.0658 28.9703 28.6384
Au 9.25389 15.1237 15.7016
Au 7.19956 22.0874 27.504
Au 13.1698 28.2395 15.0089
Au 12.4385 29.4215 17.4909
Au 16.3638 8.80756 13.3813
Pd 7.88834 19.2775 22.5583
Au 19.6868 13.492 31.0386
Pd 13.4654 19.8811 8.87909
Au 28.1674 22.6265 12.8065
Au 12.8613 17.6788 7.00576
Au 26.8756 22.212 8.90599
Au 23.3969 17.223 18.3777
Au 26.5453 14.1507 15.988
Pd 21.7995 19.9127 31.7541
Pd 19.1753 21.4354 10.5496
Au 25.1126 10.9247 28.0876
Pd 19.5696 20.9035 17.4047
Au 8.39436 22.2227 13.4146
Pd 23.6473 13.3475 27.0699
Au 30.1807 24.5073 12.7156
Au 21.1243 6.85059 15.5347
Au 26.1156 7.92305 23.4691
Au 25.177 30.1817 14.184
Au 19.3858 32.9604 22.6076
Pd 21.6212 12.5012 21.9271
Au 7.66122 27.9658 16.5641
Pd 21.3171 24.9245 8.51317
Au 19.2551 18.7746 11.1231
Pd 12.5663 18.2838 15.0053
Pd 13.5361 19.1055 21.7102
Au 26.3811 7.31486 20.5803
Au 17.4676 31.5285 26.3859
Au 29.2705 20.8989 18.001
Pd 16.8414 24.1728 25.8667
Au 9.78858 14.9886 28.1764
Pd 16.6026 20.3379 27.2517
Pd 25.455 9.78831 21.0601
Au 12.579 26.5097 9.52179
Au 16.5322 9.31253 24.8072
Au 13.2262 14.5756 16.2554
Au 31.8919 17.3177 26.7457
Pd 29.6302 14.0253 17.4177
Au 21.9252 14.5367 29.1479
Au 20.4001 20.3468 27.3155
Au 17.7363 32.4838 11.9945
Au 15.9539 19.9511 30.0133
Au 7.60488 16.8321 17.551
Au 11.1908 24.2918 9.13142
Pd 16.5813 20.227 33.0203
Pd 13.2625 17.1497 9.63405
Pd 11.841 16.9754 28.7757
Pd 9.06792 15.9557 23.1804
Au 17.9461 6.59611 28.7155
Au 11.3238 13.1469 14.6464
Au 13.7077 23.08 29.8661
Au 13.4825 31.4519 23.9324
Pd 29.2392 24.217 19.7902
Pd 26.2585 20.8429 29.2576
Pd 27.8445 9.64883 16.796
Au 28.3707 17.936 32.5586
Pd 11.44 15.9023 14.1829
Au 23.4474 7.40999 16.767
Au 11.7433 11.9809 26.8276
Au 30.5562 14.6782 12.4607
Au 12.052 10.2381 10.5414
Au 7.24123 24.1846 18.0779
Au 13.1263 25.8163 29.4895
Au 19.8654 11.6917 33.0933
Au 24.7053 25.1119 20.2834
Pd 27.5644 20.1965 20.2371
Pd 15.5984 15.0967 22.3313
Au 8.72988 19.812 17.1902
Pd 29.1063 29.1076 17.9309
Au 11.5672 16.6028 23.8388
Au 8.30091 28.4604 24.4754
Au 17.5567 27.7786 11.0704
Au 17.3298 14.2604 29.8847
Au 22.4643 14.4898 16.9034
Au 26.4333 13.5211 27.5189
Au 24.7258 27.8554 20.3074
Au 23.9974 7.58399 21.7294
Au 16.3967 30.0685 20.2041
Au 23.4975 8.18696 14.1753
Au 15.8539 27.1332 29.218
Au 31.5653 27.71 18.0111
Pd 17.3717 28.5825 25.0917
Au 19.7084 29.7148 28.9538
Pd 20.415 23.4007 32.1987
Pd 16.7263 13.1094 27.4755
Au 23.4326 26.9696 29.4994
Au 9.11768 21.9399 29.4124
Pd 13.9883 17.0472 17.4305
Pd 22.5794 9.95339 21.5195
Pd 31.5459 15.506 14.7653
Au 21.2852 17.8733 7.77554
Au 23.3858 9.17618 18.9219
Au 8.88645 24.2489 27.9833
Au 29.3213 23.5659 17.113
Au 19.0585 13.3168 12.3392
Au 13.9595 31.2035 16.0112
Au 19.8296 26.9036 9.68876
Au 30.4741 22.4564 14.6319
Pd 20.2299 25.526 20.359
Au 22.3357 25.0371 13.844
Au 11.5601 21.4484 28.4656
Au 26.7044 27.4832 25.8668
Pd 14.9618 15.717 19.6583
Au 19.3296 8.6617 24.5791
Au 21.1422 34.2327 17.9117
Pd 20.758 9.87379 27.8024
Au 5.54947 19.723 24.0176
Pd 26.513 30.1787 26.6274
Au 15.2311 10.5412 17.6771
Pd 21.8983 22.6714 27.4929
Au 12.7275 25.7021 16.4385
Au 29.0939 26.5112 24.5635
Au 23.5973 6.42946 24.1118
Au 30.9995 25.6314 28.8372
Pd 9.02222 24.3155 20.5142
Au 19.2018 18.7532 3.80204
Au 13.3618 9.09263 19.7867
Pd 17.1466 11.8095 8.55266
Pd 28.2749 24.5166 14.7375
Au 18.7498 24.2745 7.49573
Pd 27.6319 15.6706 18.2288
Au 25.4362 14.95 13.6354
Au 18.1457 33.4059 14.5353
Pd 10.6232 27.5312 15.9728
Au 19.1443 11.3826 10.3405
Au 10.2372 19.5577 30.1003
Au 8.61971 13.9152 21.3048
Au 12.5672 14.3448 28.2031
Au 23.6452 25.5941 7.04761
Au 22.7113 18.4194 26.9878
Au 23.5891 20.2527 33.7689
Au 30.7411 29.3104 20.3486
Au 10.0143 21.6432 9.09412
Au 25.6013 32.9188 15.2572
Au 15.0144 18.9857 13.9423
Au 32.7284 17.1526 19.665
Au 31.0055 22.7227 23.6655
Pd 24.0183 20.2643 13.7164
Au 9.09223 29.7736 15.344
Au 29.9109 16.5587 10.7628
Au 16.1206 7.41719 26.7542
Au 15.2823 28.8328 9.84904
Au 16.5142 17.9683 16.1655
Au 27.3842 12.7771 18.1963
Pd 11.3437 31.0977 22.0954
Au 11.6899 19.1622 17.3015
Au 16.2769 17.451 26.1563
Au 19.8746 34.0399 12.4957
Au 20.8219 33.843 15.0882
Au 22.4883 20.3103 6.96647
Au 8.98423 13.3476 24.0459
Au 24.6264 24.7943 30.5897
Au 14.2532 21.1481 31.7705
Pd 10.7357 28.5102 23.1424
Au 28.3921 15.8375 31.0673
Pd 18.3571 22.2376 33.7394
Pd 25.6159 19.2486 22.1803
Au 20.7353 7.23136 28.4333
Au 23.0323 19.8611 20.8871
Pd 27.4937 24.8588 26.5014
Au 26.9175 25.2337 23.6449
Pd 18.7014 13.8462 25.6446
Au 17.7896 18.2686 28.4343
Au 31.9677 26.7086 20.4722
Au 19.8476 32.3627 25.268
Pd 19.889 29.0837 11.5327
Pd 19.6612 23.1253 21.2629
Pd 15.3883 18.1837 8.04491
Pd 14.1696 31.6166 21.359
Au 19.1396 8.60041 30.0907
Au 18.0952 14.3566 22.925
Au 25.8796 18.8978 33.6124
Au 14.8479 12.2504 32.1818
Au 17.1879 16.7945 4.85539
Au 21.3376 25.1228 5.89551
Au 21.3886 9.58606 15.4909
Au 13.1274 16.8034 33.1581
Au 11.117 14.0448 12.1115
Au 13.5061 14.7283 23.9361
Pd 15.046 11.2768 20.3359
Pd 11.0386 13.2722 17.3144
Au 27.1374 21.5006 22.795
Au 30.4645 13.2132 24.7372
Pd 15.5889 23.3548 23.5668
Au 15.5334 15.3231 32.4171
Au 21.9584 27.3725 19.4058
Au 32.3966 21.5844 21.3108
Au 25.5643 26.0836 28.029
Au 30.5575 17.4321 29.4077
Au 17.2036 16.9243 23.6215
Pd 12.8222 24.8406 19.288
Au 22.186 30.1945 12.508
Au 26.3848 32.6868 22.5372
Au 9.65231 26.9599 21.0222
Au 18.5719 27.5322 27.9797
Pd 17.011 23.4766 5.30547
Au 13.2262 29.2053 22.4631
Pd 19.9657 29.0766 14.2337
Au 18.7198 11.0692 26.119
Pd 18.3538 19.1164 25.6097
Au 17.9499 24.4955 32.3723
Au 11.0745 19.6866 7.6395
Au 25.8426 30.0176 21.8575
Au 15.3043 25.1873 20.0176
Pd 17.0948 6.18964 21.1789
Au 26.6696 27.5864 13.4443
Au 26.3442 11.5141 11.0143
Au 25.5252 15.8264 20.6526
Au 15.5811 13.2455 15.4852
Au 32.8988 23.5961 25.3957
Au 24.6214 18.7486 6.04522
Au 28.8785 29.1678 25.7471
Au 22.5912 32.0557 18.6561
Pd 17.7694 21.6837 7.17111
Au 13.5509 13.6638 20.9263
Au 9.99369 11.4835 22.3772
Pd 25.0897 15.1641 18.0599
Au 15.8057 24.2333 7.53709
Au 27.6135 25.4051 12.0507
Au 12.4172 23.8423 27.2588
Pd 22.3095 26.8103 16.5206
Pd 16.1644 14.931 25.1438
Au 29.8563 24.3503 30.7678
Au 23.1137 34.3808 19.8556
Au 27.8019 28.867 15.5851
Au 30.4601 21.9565 26.434
Au 10.2362 12.2575 10.3314
Au 18.3896 15.9222 12.011
Au 27.4308 17.8599 24.6982
Au 18.6557 8.84898 11.9148
Au 11.067 16.5044 11.2237
Au 20.2088 17.5049 27.4179
Au 30.1607 10.4354 20.7602
Pd 16.3469 13.7421 12.7345
Au 20.1455 29.4569 8.83912
Au 27.8213 18.1235 29.4827
Pd 16.5106 13.4811 20.4295
Au 17.7334 22.8542 16.7744
Au 23.9294 10.4417 30.5747
Pd 11.3392 16.4087 16.9496
Au 21.7063 19.251 17.8981
Au 32.7974 20.0159 19.0645
Pd 22.5382 20.8387 25.3822
Au 25.0046 14.8173 8.35026
Au 17.2263 15.4751 14.5823
Au 13.1721 26.9893 26.8456
Pd 28.2059 25.8188 29.1152
Pd 27.5948 13.8828 25.063
Au 27.8879 10.169 14.0069
Au 25.0305 29.319 24.5829
Au 19.4849 6.69565 22.2939
Au 7.04577 21.9445 23.1617
Pd 22.7602 28.4272 23.2011
Au 20.2942 22.0284 8.05812
Au 29.7975 10.5875 23.377
Au 26.2417 20.5035 11.9973
Au 17.8117 19.2949 20.5005
Pd 15.0068 21.6223 13.5264
Au 11.2937 22.7515 19.9052
Au 8.83089 16.4307 13.2042
Pd 29.3198 24.5927 22.5079
Pd 17.2978 25.7627 9.22188
Pd 17.0841 11.2791 22.2347
Au 21.9895 25.448 11.0854
Au 11.4482 24.821 21.7796
Au 22.2281 28.2229 10.4243
Au 9.27875 26.1157 23.6241
Pd 24.802 23.5056 27.2157
Pd 21.0047 21.9141 29.9136
Au 24.2076 31.22 16.6294
Au 16.5003 8.89925 29.4465
Au 33.0869 21.2515 26.7229
Au 6.58531 15.3318 22.3917
Au 14.6961 9.63847 22.6507
Pd 7.76318 17.9025 26.7766
Au 21.9252 24.5084 30.0801
Pd 17.0891 17.5803 10.2179
Au 21.416 7.73287 20.3051
Au 18.8227 8.53611 15.0128
Au 7.68368 28.697 19.7036
Au 13.7235 14.2734 13.4937
Au 17.9693 28.3338 22.4094
Au 13.4681 23.7483 14.5247
Au 17.5756 28.2879 8.30187
Pd 10.7078 18.5006 13.0164
Au 13.2656 11.6956 15.9926
Au 9.68505 17.9101 15.4998
Pd 26.6092 23.6088 29.0968
Pd 23.8276 18.4431 8.61725
Au 14.5376 10.6538 8.9753
Pd 22.5278 22.7363 20.5211
Au 19.8965 21.5487 24.8282
Au 16.3167 16.7095 30.1184
Au 17.2944 12.6235 17.5753
Au 17.9022 10.5647 31.546
Au 16.9869 17.2125 18.8438
Au 16.8179 17.5401 33.6919
Pd 21.505 15.3346 31.8692
Au 20.762 27.1958 29.6395
Au 20.8861 30.6699 23.2353
Au 20.7468 18.2133 20.5942
Au 14.5653 9.85357 11.5465
Au 16.9074 20.1251 12.0087
Au 15.8561 32.02 13.9606
Au 29.7476 27.1973 22.0274
Au 15.7185 20.9925 5.23177
Pd 19.6964 26.3155 12.3525
Au 9.31034 24.7462 13.4129
Au 14.2543 25.4343 22.4907
Au 24.4263 7.94993 26.0816
Au 11.8643 9.57107 23.6672
Au 24.0497 19.0352 11.276
Au 17.4172 8.58989 22.3754
Pd 21.7935 11.5281 9.19602
Au 28.5357 18.2146 8.91564
Au 22.41 30.8752 9.87072
Au 14.9737 23.7834 12.0524
Au 26.4022 23.5472 16.4739
Au 21.1687 15.0651 26.6571
Au 30.0985 15.9452 19.413
Au 31.893 12.8345 18.1212
Au 29.4492 22.0312 21.3614
Au 26.1904 17.1912 7.59273
Au 33.1678 20.9862 23.9866
Au 14.8498 24.7873 27.8662
Pd 10.592 20.1098 19.6456
Pd 12.6933 27.0512 20.9754
Au 12.4316 17.8688 19.5591
Au 24.9865 21.1183 7.29857
Au 20.9495 8.13437 13.2043
Pd 24.4255 32.069 20.6521
Au 25.9536 8.52771 15.3015
Au 31.7244 25.6156 23.6261
Au 14.7509 12.463 23.0138
Pd 24.0487 20.3685 18.5318
Pd 24.912 17.7541 25.7647
Au 25.2085 21.6682 20.7089
Au 27.421 28.2567 23.238
Au 22.129 13.1547 33.8067
Pd 30.3779 19.7968 20.2161
Pd 24.5237 26.4783 17.9214
Au 19.2389 20.9205 31.7305
Au 29.3285 18.123 26.9674
Au 23.0219 12.9428 24.467
Au 12.3578 19.3676 32.6186
Au 31.6084 24.1637 21.0882
Pd 13.7745 29.4167 19.8375
Au 22.5081 15.9473 9.2058
Pd 23.086 23.4376 25.155
Au 22.9161 29.7977 20.7999
Au 27.0161 12.7355 13.4104
Pd 28.4207 18.3115 18.3961
Au 29.6242 16.5337 16.4653
Au 24.1705 21.4176 9.89386
Au 23.2049 10.5069 26.2549
Au 29.6691 11.1508 18.1845
Pd 18.0145 21.7751 19.5303
Au 15.4653 27.6738 21.2742
Pd 27.777 15.625 12.3356
Au 28.7027 20.0259 13.258
Pd 22.137 29.7115 25.4927
Pd 32.9221 19.0005 21.6454
Pd 27.8699 14.4579 20.6341
Au 12.4106 24.662 11.7224
Au 20.5915 23.1206 12.5983
Au 10.8873 28.7186 13.346
Pd 23.9697 24.1367 9.51197
Au 12.2539 19.1385 24.209
Au 20.9895 21.3409 33.8695
Pd 13.9853 23.8775 9.50911
Pd 13.1972 16.3383 21.6488
Au 28.0225 13.4052 29.7522
Au 28.5617 20.7578 10.4116
Pd 24.9266 18.2524 28.8511
Au 14.6625 13.2827 18.2821
Au 10.399 26.3982 11.5217
Au 21.5681 18.6386 34.4116
Au 17.1121 21.5481 24.955
Pd 19.2292 18.4527 18.3903
Au 23.3308 14.8194 22.5283
Pd 9.77969 28.9916 18.0114
Au 18.4319 16.5839 21.1658
Au 20.7851 14.371 23.8781
Au 13.9356 8.06775 25.02
Pd 16.6807 27.0692 18.6011
Au 32.9245 16.2789 22.2267
Au 17.0609 32.6891 19.2519
Au 18.8073 16.3114 16.7116
Au 27.5849 28.2923 28.3022
Au 15.5152 30.9424 11.5178
Au 12.3376 22.2865 7.72958
Au 21.9675 27.5506 7.82497
Pd 19.3336 10.9386 16.7456
Au 28.7737 23.575 10.3805
Au 15.9004 24.7672 30.5262
Au 25.4819 23.7724 7.29632
Au 30.6805 28.609 15.6676
Au 22.9633 17.7398 13.6886
Pd 20.6585 15.0388 21.1688
Au 28.0517 21.633 15.5312
Pd 24.3747 28.4973 12.2035
Pd 24.5346 12.6859 17.5945
Pd 25.7863 22.2179 13.9956
Pd 13.4866 14.7148 10.7757
Au 21.0984 15.2907 11.8989
Pd 15.2402 22.1102 16.1635
Au 27.1563 19.6204 7.00146
Au 23.8807 33.7454 22.7545
Pd 28.0199 29.215 20.5042
Au 21.1423 31.4644 16.3485
Au 20.9701 24.2799 16.1915
Au 27.0009 25.206 18.5831
Au 30.5851 21.8353 11.9266
Au 25.3387 16.7342 23.209
Au 26.4285 9.58772 25.8229
Au 30.0097 13.0843 20.0557
Pd 14.4308 26.0786 13.5516
Pd 13.2041 17.2148 12.5559
Au 22.7652 16.3136 24.9323
Au 17.7336 16.774 7.67903
Au 27.5421 31.3958 14.3073
Au 32.9013 18.1424 24.1817
Au 26.4493 27.5877 10.5347
Au 33.4958 23.5219 22.85
Pd 17.7498 14.0528 10.0024
Au 26.4132 11.4892 30.5778
Pd 18.9612 32.965 17.0943
Au 19.6447 17.1627 5.77516
Au 10.3499 31.465 17.2907
Au 21.276 31.5086 27.3977
Au 29.6364 26.9914 27.1206
Au 16.1972 10.4681 27.2593
Au 21.4902 10.5693 24.1544
Au 14.9805 26.2258 10.7582
Au 16.8052 32.3601 21.8762
Pd 23.2134 17.6359 32.2907
Au 26.2037 19.5321 9.42977
Au 31.3374 25.0561 18.2335
Au 16.198 15.2672 17.1644
Pd 10.8196 21.6522 17.2187
Pd 22.6508 10.6319 13.4692
Au 27.8503 17.2158 20.7453
Pd 12.1608 12.2472 24.1747
Au 12.8316 20.1453 12.555
Au 19.4809 29.7902 26.3488
Au 23.9572 30.8967 26.972
Pd 21.5216 12.438 11.9355
Au 9.2867 31.1003 19.7641
Pd 16.8396 23.3974 21.309
Au 13.098 24.9933 7.25216
Au 28.9369 20.575 28.3641
Au 25.6696 16.939 10.2366
Au 21.8161 8.67441 30.5888
Au 29.7086 12.2073 13.269
Au 21.8251 15.9312 34.4455
Pd 17.5322 18.0075 13.5086
Pd 21.612 20.0545 9.52996
Pd 16.3256 19.4496 23.4276
Au 19.0874 12.6957 20.9715
Pd 23.8835 18.8964 16.1325
Au 18.4137 8.69197 27.2756
Au 27.2592 24.7363 31.4099
Au 13.0681 14.2807 32.3988
Pd 25.4345 30.1568 19.0089
Au 27.2111 20.0606 31.6374
Pd 25.2313 32.101 24.932
Au 15.0198 13.2345 7.89087
Au 8.32579 12.5689 18.8382
Pd 13.6432 16.3909 30.5338
Au 31.3809 14.7906 27.2322
Au 26.4037 19.4755 14.899
Pd 14.1279 20.9147 28.203
Au 29.7974 19.6376 30.7696
Pd 28.0739 15.8196 23.0987
Au 12.6086 29.2187 25.1481
Au 24.0736 14.9584 33.2799
Au 19.9837 22.8286 5.48905
Pd 19.7429 13.7479 16.8366
Au 19.7314 32.8355 19.7227
Au 16.773 25.998 23.7046
Au 20.7346 30.236 19.3032
Au 8.39957 26.3432 26.4234
Au 13.0473 23.0027 17.3758
Au 21.569 19.9011 15.118
Pd 16.89 10.5406 15.4049
Au 14.4626 17.3881 23.89
Au 10.7872 12.8453 20.0775
Au 18.2238 30.5093 18.159
Au 14.8963 18.3575 31.9768
Au 12.2816 21.4059 25.7429
Pd 25.2492 28.7356 16.4568
Au 14.7146 27.7145 24.2379
Au 11.4108 19.1525 10.3463
Au 16.7754 22.2988 31.3716
Au 21.1142 20.735 22.5967
Pd 28.4865 23.0675 24.6147
Au 25.6037 20.1859 24.7522
Pd 9.76301 17.7456 18.7922
Au 19.3069 16.8542 34.5228
Au 20.1215 23.3109 18.609
Pd 14.7938 21.4549 10.7378
Au 22.2286 26.1347 24.5983
Au 20.9285 18.7626 24.9434
Au 18.7552 26.1464 25.6512
Au 22.4993 32.462 25.0627
Au 23.8144 24.4202 16.1225
Au 29.4277 31.4502 19.0349
Pd 26.1392 27.058 30.3725
Au 17.9171 18.5301 31.3672
Pd 21.0678 27.418 26.8197
Pd 20.6285 10.613 19.5013
Pd 15.4829 22.4907 18.8972
Pd 26.1744 11.4297 15.7695
Au 19.7784 9.88625 21.9397
Pd 8.82177 22.1327 18.8558
Au 11.9054 10.2201 28.9465
Au 18.8568 24.4569 14.2034
Au 31.0618 18.3274 17.9913
Au 14.6482 16.4156 14.8231
Au 19.423 5.65825 19.7333
Au 14.528 6.59383 20.2571
Pd 22.1414 22.0004 17.4391
Au 16.0092 26.9022 26.5618
Au 20.4636 13.8461 9.74594
Pd 27.2906 22.5301 18.9254
Au 25.8746 17.4533 31.3153
Pd 11.2008 14.0705 22.5437
Pd 18.2072 12.7945 14.8252
Au 21.5104 6.00193 18.132
Au 20.6373 8.57022 17.7786
Au 18.4451 23.7075 23.6777
Au 17.9147 28.3092 16.448
Au 7.74592 30.5269 17.5894
Pd 26.2957 15.6276 29.2941
Au 29.3787 26.8804 14.013
Au 26.888 29.9023 11.9838
Au 23.252 33.8202 16.4457
Au 19.1252 18.8503 15.6833
Au 28.819 27.8459 11.6015
Au 28.3792 22.2127 30.6403
Au 25.2226 33.2361 18.2029
Au 23.973 15.9376 27.7324
Au 19.8277 26.2546 17.852
Au 23.864 22.4245 29.4957
Au 11.0642 23.9283 29.6784
Au 10.0291 20.5666 14.7517
Au 23.0812 29.2059 17.9762
Au 11.8615 21.2094 22.0203
Au 8.7512 29.7166 21.9712
Au 14.8015 18.7669 11.044
Au 12.6333 11.2267 21.6534
Pd 22.4942 22.4083 14.6563
Au 8.83881 14.9453 10.9675
Au 12.4131 9.34132 17.2248
Pd 15.8043 17.6456 21.4182
Au 24.6367 25.7873 11.721
Pd 14.2524 25.0915 25.2427
Au 23.2363 13.6259 10.2828
Au 14.4453 9.17283 15.3272
Pd 31.2663 19.6499 25.5889
Pd 18.9512 6.62966 17.1062
Au 26.5516 25.1074 9.40711
Au 19.939 15.1109 14.4454
Au 16.8047 6.41976 18.5661
Au 14.3733 19.6641 16.7403
Au 13.0187 12.1858 11.9205
Pd 31.2013 13.0273 15.4998
Au 20.2504 15.0953 7.31758
Pd 27.7961 18.1961 11.476
Au 19.1045 19.2652 8.44519
Pd 25.5083 13.1303 20.158
Au 17.7537 30.341 10.0955
Au 25.0603 14.8881 25.2605
Pd 20.6145 28.2918 21.5928
Au 24.0851 17.365 34.7405
Au 25.7234 22.4419 31.5926
Au 14.1822 13.3903 26.1359
Au 24.5232 31.3657 11.792
Au 27.0435 32.138 19.8785
Au 22.3875 11.7109 28.7498
Au 16.8183 9.77143 10.1774
Pd 24.1926 26.8349 9.28625
Au 18.8843 30.6586 21.185
Pd 11.6382 26.0746 13.9321
Au 25.8388 7.98328 17.9947
Pd 11.3254 26.939 18.6041
Au 24.1481 9.60721 23.845
Au 20.1615 19.0168 29.7628
Au 30.945 21.9647 29.7206
Au 18.3163 26.3238 30.4662
Au 31.2864 22.3615 18.9328
Au 28.9873 15.6052 28.4041
Au 28.771 12.0069 15.7815
Au 32.3206 14.4868 20.2372
Au 27.0671 13.022 8.82897
Pd 30.3061 24.5695 25.9451
Au 20.1083 28.2015 24.2876
Au 15.5988 15.5087 9.27166
Au 19.2456 6.35095 26.3287
Au 29.2656 13.1743 27.2533
Pd 27.1304 26.5335 21.0599
Pd 16.9126 20.1685 17.7369
Au 10.3841 11.3559 12.7861
Au 20.0165 20.0699 5.98336
Pd 6.48766 21.5031 17.9101
Au 28.5558 13.3465 11.0744
Pd 23.251 17.1997 21.1699
Au 22.6978 19.9984 29.1173
Au 31.3539 19.9001 13.7842
Au 24.7029 29.5207 9.78484
Au 12.1964 26.4437 24.0105
Au 14.7184 18.0774 28.2838
Au 12.959 19.253 30.0429
Au 24.4871 19.9376 31.205
Au 22.0408 5.6316 21.8048
Au 17.3729 13.1039 32.4472
Au 8.77979 27.3153 13.9927
Au 16.3836 32.1685 16.6445
Au 20.1178 31.6565 13.5299
Au 16.789 29.3975 27.7895
Au 32.3634 26.0382 26.5189
Au 9.7281 20.7462 11.6442
Au 10.6145 16.0254 20.8379
Pd 18.217 30.7896 23.8558
Au 16.056 8.74789 20.0269
Au 28.7803 31.4404 21.7372
Pd 17.7356 25.9698 21.1771
Au 18.2551 15.8069 32.1345
Au 26.0628 13.9315 22.7933
Au 27.0701 31.1678 17.1196
Au 29.4175 15.6533 25.656
Pd 9.16565 12.8657 26.6861
Au 19.6933 10.7282 13.5221
Au 14.5644 31.792 18.6626
Pd 14.8769 11.4374 13.7115
Au 8.65504 26.4735 18.5209
Au 6.76653 15.0289 19.6111
Au 18.9732 19.4526 33.985
Pd 12.7052 11.5504 18.7817
Pd 26.9122 16.2596 26.8045
Au 7.6436 19.7323 28.7889
Au 7.72784 19.6236 19.6895
Au 21.0695 12.3546 26.2946
Au 17.1975 20.664 14.9432
Au 30.9569 25.0629 15.4083
Au 26.0723 17.6594 17.1766
Pd 30.2113 17.6242 24.1553
Pd 18.384 20.9603 29.2098
Pd 19.6452 16.4791 9.61213
Au 11.5718 30.5587 15.1172
