923
Atoms. Timestep: 20786
Au 13.6782 15.088 30.6642
Au 19.0752 18.7791 16.5452
Au 10.032 14.3312 19.9619
Au 7.37236 13.5345 18.8683
Au 21.7306 20.1243 27.1854
Au 30.4529 16.6952 14.6615
Au 18.4367 31.6416 17.5247
Au 15.4581 28.0092 18.749
Au 31.9587 23.7802 26.0682
Au 27.6812 20.4516 20.4443
Au 23.209 8.67586 18.6641
Au 20.1292 14.8959 18.8458
Au 16.8147 14.1297 21.9222
Pd 29.4606 20.893 22.4077
Au 29.0527 17.1014 31.0884
Au 28.4844 29.8853 16.6503
Pd 13.0803 15.0937 18.4964
Au 13.3586 25.4597 9.89456
Au 29.2579 15.9736 26.3419
Pd 18.8805 16.299 28.8026
Au 31.3813 26.2823 16.3328
Au 21.7586 18.6191 17.0487
Pd 14.6178 23.4978 24.3662
Au 30.2052 15.1273 12.3644
Au 7.0143 15.195 21.1767
Au 18.6383 18.8931 29.7417
Au 21.2084 18.006 29.0887
Au 21.5666 22.4643 23.657
Au 17.0541 11.9874 16.5591
Au 21.9541 20.5039 6.37248
Au 20.6497 28.1969 15.062
Au 24.4408 21.7648 33.5716
Au 31.9094 26.5609 25.8454
Au 20.8668 30.3519 16.7603
Au 17.365 20.4873 6.28767
Au 14.1283 9.18384 23.4912
Au 28.9989 29.3948 21.9774
Pd 14.2867 19.6709 9.16266
Au 17.7671 17.5068 6.61385
Pd 24.2751 30.3773 22.6884
Au 10.8754 23.3925 28.1073
Au 16.5721 31.8715 15.0977
Au 16.507 17.7032 15.1891
Au 21.4128 31.149 10.6002
Au 20.4733 11.0638 31.9234
Au 22.0964 32.2668 21.5102
Au 11.8425 12.7491 17.6809
Au 16.6129 26.7692 21.1721
Au 15.1039 29.2295 27.8785
Au 24.8583 14.1273 20.0249
Au 26.7797 31.5892 22.9432
Au 15.3238 21.9808 26.5389
Au 22.6803 12.6587 7.04963
Au 11.7219 18.8942 16.2947
Au 26.0265 23.2539 9.94684
Au 28.4319 24.236 31.6258
Au 23.9408 17.0308 13.012
Au 13.1391 9.50902 26.1624
Au 34.0099 23.6955 21.6527
Au 12.1086 25.1143 24.301
Au 15.8021 15.1932 18.2987
Au 13.4682 14.3025 15.5045
Pd 12.4297 13.3043 20.4379
Au 12.472 25.7018 19.6678
Au 17.6092 25.458 8.87335
Pd 16.966 15.1329 27.1082
Au 14.1637 22.8259 10.627
Au 15.0083 14.1152 25.3215
Au 27.3417 8.81569 20.6041
Au 9.76653 21.6977 10.4318
Au 23.8327 9.19254 10.1824
Pd 14.39 14.5472 28.0136
Pd 24.384 10.2777 24.7379
Pd 19.247 21.0071 28.1286
Au 15.4559 25.1432 30.424
Pd 18.2265 22.8826 7.74859
Pd 23.6622 31.1331 17.287
Pd 18.2329 29.4554 15.491
Au 11.488 26.1311 14.0377
Pd 22.0447 28.6422 9.7942
Au 30.7987 14.4036 18.2408
Pd 20.2163 21.0565 32.7767
Pd 10.1361 20.7816 28.5146
Au 20.2728 16.1693 5.29129
Au 32.4841 15.3014 20.1085
Au 25.005 10.3028 19.9028
Au 20.2559 14.8324 23.5762
Au 29.8638 22.3836 13.1284
Au 8.74372 27.8061 22.8601
Au 8.91739 15.756 14.4695
Au 9.61767 25.0331 16.1477
Au 9.92148 12.931 27.1792
Pd 20.2117 20.7097 22.2786
Au 15.8072 33.4598 17.1536
Au 11.3165 18.5958 20.9556
Pd 20.9247 20.508 30.1578
Au 13.0592 20.4532 11.535
Au 11.0738 11.6647 11.6433
Au 22.5796 18.7718 11.5098
Au 25.0236 10.3852 14.1685
Au 30.6757 12.0566 22.344
Pd 22.0075 12.8516 27.521
Au 20.5083 27.6175 12.2974
Pd 20.7673 26.6666 25.3607
Au 20.9846 20.2867 14.9021
Au 16.287 8.33953 15.3357
Au 15.4753 16.2687 23.5382
Au 17.7956 12.7781 7.06518
Au 16.2837 15.6624 29.7337
Au 13.5186 18.0822 22.5821
Pd 21.2558 8.67465 10.5542
Au 4.10827 19.24 19.1251
Au 14.9952 15.9528 20.8428
Au 23.4818 18.5361 19.5356
Au 17.7122 14.6759 33.1709
Au 16.5516 24.2248 22.3976
Pd 8.71703 22.5771 14.9303
Au 11.0466 15.4223 7.88728
Au 22.5225 17.8282 8.79999
Au 7.16013 22.4687 10.8662
Au 23.3218 26.5131 11.0012
Au 11.5349 16.6227 29.7824
Au 10.0164 28.8014 20.4474
Au 30.6956 16.3844 28.6696
Au 8.43259 12.68 21.4197
Au 20.3077 13.5087 5.96885
Au 20.4437 13.2289 11.376
Au 26.1978 12.4487 18.2906
Au 26.6795 25.0951 26.9243
Pd 31.5037 16.3912 24.2026
Au 15.7617 27.6454 12.444
Au 22.6674 16.0186 18.7481
Au 15.1948 21.0062 22.7763
Pd 16.3767 20.2134 13.7907
Au 15.7963 7.2961 24.473
Au 12.6859 22.4559 22.8601
Au 25.7946 7.80362 18.458
Au 15.1349 9.17634 20.7692
Au 4.55082 19.5775 16.3841
Au 20.6938 16.2009 16.4426
Au 18.8198 26.3945 16.3049
Au 19.4527 29.2536 10.2652
Pd 26.5739 29.712 20.8344
Pd 26.0205 18.4353 20.8922
Au 9.02019 19.7823 21.6484
Pd 21.9414 29.5719 21.4797
Au 15.6961 29.3726 14.4111
Au 21.8471 18.5213 21.823
Pd 18.1822 28.7164 17.9767
Au 20.6221 8.82491 14.8527
Au 26.9836 12.7896 30.4842
Au 32.6507 15.8825 13.5053
Pd 20.2031 21.1356 17.4033
Au 12.2744 18.5391 13.5375
Au 18.0384 13.1701 9.68414
Au 6.96796 24.8076 15.4473
Au 26.6901 27.601 25.7966
Au 9.65838 15.4814 28.0151
Au 7.05033 15.1595 16.4581
Au 21.3591 30.0725 28.5844
Au 10.4247 22.2661 17.0666
Au 17.0242 31.7009 21.9918
Au 12.8079 15.6295 24.2767
Au 22.9372 30.1822 14.6809
Au 11.3751 19.3223 30.4817
Au 11.5776 15.3193 10.656
Au 30.2883 19.6538 19.9718
Au 12.4549 8.99844 20.9241
Pd 26.8424 27.6669 16.5347
Au 22.3416 22.3088 28.7824
Au 26.1257 28.5693 30.5982
Au 18.6717 25.6808 26.9636
Au 11.2079 24.2715 21.5372
Pd 18.1403 10.1352 14.6818
Au 14.6082 20.3065 6.44235
Au 13.7046 31.7327 17.2243
Pd 11.9032 20.0556 6.58112
Au 32.6655 17.677 16.0068
Au 19.7926 18.9856 5.24683
Pd 25.8158 18.8369 27.9542
Au 32.6764 13.7963 24.158
Au 25.1518 23.68 25.2138
Au 24.0268 26.9558 31.5234
Pd 28.7498 18.1381 21.6729
Au 24.5596 15.2666 24.938
Pd 21.3307 29.2885 25.8333
Au 20.538 13.942 14.2193
Pd 17.9676 27.0625 11.0838
Au 8.84784 18.7273 18.991
Au 34.3011 17.277 20.3904
Au 18.5995 10.1717 17.8428
Pd 10.4843 19.4066 11.6968
Pd 20.2945 26.5046 9.88208
Pd 17.8984 13.1158 14.2978
Pd 22.1058 24.4637 9.33117
Au 11.9789 18.7049 27.9331
Au 31.5086 27.7984 23.2912
Pd 21.9358 30.851 23.8919
Pd 23.2717 10.6023 27.0385
Au 31.4824 12.0386 19.5085
Au 22.8712 8.08584 25.6924
Au 11.741 30.9312 19.002
Au 13.5184 31.9581 21.9666
Au 26.3526 20.4147 25.7408
Au 23.5266 19.6927 29.4104
Pd 16.4047 15.3559 7.842
Au 9.58192 16.8333 11.9076
Au 7.97114 21.7548 8.43487
Au 15.3382 32.0293 24.1539
Au 13.9189 15.7557 11.8975
Au 21.7055 31.9961 18.8713
Au 31.9938 21.8936 21.2043
Au 33.6119 22.7359 17.0205
Pd 13.9049 29.017 16.5016
Pd 12.3619 29.6296 21.4079
Au 18.093 17.1814 4.02797
Au 31.0417 23.8535 17.3327
Au 27.1545 31.9437 15.5206
Au 15.7841 22.1691 15.5711
Au 30.4845 27.8845 28.2505
Au 20.9716 25.5003 22.7582
Au 20.3757 20.0985 12.2519
Au 15.4031 13.8023 13.1279
Au 22.4234 17.8644 6.08144
Au 8.78849 21.4127 19.3472
Pd 20.8989 22.578 7.9146
Au 18.3289 9.3457 31.1961
Au 14.1284 17.2072 28.8686
Au 9.05875 24.0788 9.66644
Au 19.5474 15.7607 26.1591
Au 25.9463 17.5331 30.4225
Au 5.44391 22.4603 15.9657
Au 20.5924 27.4979 18.0546
Au 14.116 16.6649 14.411
Au 28.6127 11.6287 28.5514
Au 32.5882 22.9217 28.7237
Au 28.7391 23.6542 22.166
Pd 24.3662 28.1581 21.1521
Au 34.3548 20.0943 24.8147
Au 18.0995 16.4995 22.733
Au 12.9263 24.5668 29.5054
Au 7.45537 13.5983 13.9862
Au 15.3683 18.7776 33.1576
Au 18.6393 11.9864 23.2403
Au 6.30088 18.3494 25.0259
Au 19.0386 18.4904 21.2725
Au 5.42041 15.4417 18.7013
Au 8.12398 19.5786 26.9274
Pd 20.1382 12.7122 25.3943
Au 7.41714 23.621 24.3895
Au 25.4997 29.9051 15.8615
Pd 14.008 27.5905 20.9914
Au 29.4906 26.4372 30.3482
Pd 27.4992 19.1762 10.921
Au 6.82378 21.0101 25.0039
Au 30.6646 28.8725 25.6907
Pd 14.8538 22.6262 29.2115
Au 22.4295 22.0164 18.7061
Au 18.9729 11.4143 29.6348
Au 17.676 14.4702 24.5118
Au 10.4533 22.1082 7.66949
Au 17.4046 12.4032 26.1705
Au 26.1433 16.2498 26.9887
Au 15.7473 11.8591 11.0725
Pd 24.3417 19.0315 22.851
Au 16.5311 8.25116 29.3212
Au 26.3841 30.5748 25.8566
Au 17.9276 16.5327 17.3369
Au 22.676 12.6084 32.007
Au 11.0275 16.8354 18.7909
Au 6.89181 25.7753 22.7746
Au 13.87 31.2573 14.5268
Au 13.7912 33.0831 19.5447
Au 12.8993 11.6448 15.2183
Pd 11.2944 26.9657 21.9853
Au 28.7948 24.4849 28.5583
Pd 15.478 17.4064 10.1315
Au 25.0024 18.4179 10.0109
Au 5.97736 15.9322 14.0438
Au 19.6501 21.7716 5.64811
Au 26.4014 29.0219 23.5247
Au 33.9791 16.2548 17.9308
Pd 20.9084 23.332 16.092
Pd 14.7927 18.5563 12.4836
Au 24.3481 6.52896 16.5284
Pd 15.0273 13.2383 20.0398
Au 4.00343 23.7259 20.1343
Pd 33.4142 13.5979 18.3793
Au 25.8053 22.108 17.4005
Au 24.9011 10.2982 17.1126
Au 24.4988 18.2998 25.589
Au 25.1206 26.4796 23.6557
Au 21.881 32.6502 14.9861
Pd 29.813 11.3689 15.2468
Au 25.6407 33.1041 17.5979
Pd 11.6936 23.4152 9.59931
Au 8.01025 19.6852 10.2652
Pd 16.4503 8.37369 17.9957
Pd 16.1737 25.4187 14.1374
Au 28.3257 13.5192 22.7778
Au 19.0453 24.139 17.7998
Au 19.2954 27.9797 30.3858
Pd 25.0126 12.7351 26.1426
Au 5.15428 17.2641 20.7256
Pd 13.9058 19.9361 29.6992
Pd 18.7198 18.7361 13.9203
Au 12.0615 24.5243 17.221
Au 14.4137 9.85218 28.6508
Au 16.367 9.36358 12.6961
Au 34.5356 20.9295 22.1714
Pd 27.691 14.3875 11.4797
Au 24.6129 12.4238 28.9591
Au 30.2833 22.0286 27.7352
Au 21.8694 31.9801 26.3863
Au 24.7578 11.1454 31.2597
Au 12.9624 13.3451 7.65813
Au 5.94257 20.3521 12.0966
Pd 30.861 14.7286 22.197
Pd 10.9968 20.8579 14.3587
Pd 9.34637 16.8351 21.0815
Pd 7.72255 25.5063 18.1612
Au 11.8244 13.9754 28.9098
Au 20.5018 22.7032 13.4948
Au 22.709 20.0769 32.122
Au 8.84838 22.1915 26.4051
Pd 26.1485 19.0934 17.5958
Pd 24.7693 26.4624 29.016
Pd 16.6647 11.4756 21.3059
Au 23.9504 14.6985 27.5474
Pd 9.05089 15.0615 9.73182
Au 19.5069 6.8841 21.496
Au 15.5633 16.1919 32.3868
Au 31.5687 13.3992 14.0369
Au 9.59165 18.4744 14.222
Au 5.31668 24.3173 17.8771
Au 19.9995 16.2649 33.5971
Au 20.3559 10.6805 27.3568
Au 20.9691 13.2845 30.0308
Pd 22.734 27.6879 23.4266
Pd 9.41945 21.9386 23.6156
Au 8.79089 26.1937 13.8091
Pd 21.8329 25.86 16.3017
Au 8.99605 23.7577 12.4997
Au 10.9469 25.3249 11.4279
Au 20.2085 28.0496 7.77877
Au 26.8168 10.2179 29.8705
Au 24.0344 11.9946 21.9528
Au 29.2214 10.7239 20.2479
Au 17.8289 29.1643 28.2852
Au 31.9789 15.29 26.5453
Au 20.9804 25.565 31.922
Au 28.3222 11.9236 25.7055
Au 14.0178 23.1743 31.6515
Au 19.9188 32.6573 24.7278
Pd 24.3102 23.9185 27.8244
Au 16.4361 27.2789 26.6092
Pd 23.2191 14.8209 30.2178
Pd 14.7577 11.9663 27.0476
Au 22.8563 24.7382 30.1395
Au 11.3949 23.5245 14.6415
Pd 14.1245 13.9368 22.6152
Pd 12.2345 16.0707 27.0942
Pd 25.2411 19.54 12.4949
Au 22.0878 15.3271 7.35955
Au 23.0007 12.9119 13.2186
Au 8.65082 16.8277 7.61478
Au 32.211 21.1272 12.9982
Au 17.8612 14.7852 5.31063
Au 13.6847 21.7829 13.728
Au 29.238 27.5039 15.1171
Au 33.7494 19.3425 17.9267
Pd 15.0958 25.2443 19.4952
Au 22.4325 26.6903 7.97689
Au 15.6126 20.9666 31.5256
Au 22.3625 33.5518 23.99
Pd 19.8568 11.7522 15.8542
Au 16.9807 9.40308 23.0526
Au 12.4005 29.0239 13.9341
Pd 21.3969 15.4331 28.2529
Au 10.7818 21.6537 21.1268
Pd 26.6763 26.1325 31.1643
Au 13.5053 17.7832 19.6361
Pd 25.8132 15.0743 29.5314
Au 11.6275 27.471 16.3329
Au 17.5994 33.6544 23.6701
Au 24.0314 16.4777 21.3686
Au 26.2163 24.0079 29.6728
Pd 12.4699 28.3688 18.8181
Au 13.8439 15.5207 8.96985
Au 4.90972 18.4512 13.9525
Pd 17.2043 19.1357 8.80274
Pd 26.1612 24.8999 17.6462
Au 12.5581 13.4434 13.0062
Pd 30.8248 22.7061 23.7756
Au 22.1479 13.578 20.3025
Au 13.2658 15.6707 6.28224
Pd 18.1555 27.1525 13.8395
Au 20.8463 15.6562 9.81061
Au 22.8386 12.4677 24.6928
Au 10.3684 10.9599 16.1925
Au 9.83298 23.9948 19.1504
Au 27.7529 22.5878 14.8929
Au 18.476 26.2269 23.4066
Au 27.1749 19.5861 23.3088
Au 10.7577 29.403 23.4414
Au 16.4331 32.3232 19.4735
Au 28.8471 27.7052 24.0868
Au 15.7622 25.2277 11.2691
Au 34.0459 16.0656 25.0059
Au 31.8109 21.3434 18.3658
Pd 18.8462 21.1604 9.99108
Au 12.4138 22.6651 19.2234
Au 28.0386 21.8535 11.0402
Au 22.9361 9.45113 22.5884
Au 21.4539 22.2665 10.8867
Au 16.075 30.3601 17.336
Au 21.3269 17.6026 14.1458
Pd 20.4489 23.1831 30.4963
Au 6.51021 19.6888 20.2932
Au 19.6544 31.0015 22.3579
Au 9.66687 24.7827 26.1158
Au 25.7354 28.8994 27.9797
Au 24.7312 11.5211 11.5851
Au 8.08754 16.1087 18.8425
Au 24.8631 16.5786 32.8698
Au 22.5272 15.2121 32.8621
Pd 13.348 23.8497 26.9025
Au 26.2956 10.7595 27.3266
Pd 12.4546 13.5048 26.2154
Pd 22.03 25.4933 27.5358
Au 23.3332 12.072 18.3607
Au 24.1333 21.2231 24.4251
Pd 27.0566 22.507 27.2383
Au 17.8806 30.9766 24.543
Pd 18.4485 14.1613 30.5451
Au 18.2099 21.7523 12.5289
Au 27.5482 29.3994 14.1281
Au 17.7858 23.7646 29.4157
Pd 23.4791 19.1871 14.6441
Pd 29.2056 26.3808 26.4644
Pd 16.1593 10.8907 18.8475
Pd 22.0037 14.837 25.6093
Au 32.4228 14.9661 16.0919
Au 7.53865 16.916 27.0318
Au 28.5208 22.1238 29.8026
Au 26.2413 12.0693 23.89
Au 24.7602 16.9942 7.54645
Au 14.6245 12.8364 17.3775
Au 14.9659 7.78658 27.0724
Au 7.26916 17.9158 22.3226
Au 7.46322 17.175 9.99961
Au 14.1473 7.00561 22.0221
Pd 16.6311 12.983 28.8337
Pd 11.2298 9.9049 18.5903
Au 13.3935 18.1508 5.28268
Au 24.2796 23.6081 19.8687
Pd 14.0309 24.2186 15.3523
Au 22.3336 17.793 33.8102
Au 26.4497 30.6318 18.2732
Au 24.1339 29.0785 25.238
Au 16.554 20.5932 28.8232
Au 29.9816 18.6303 24.1106
Au 8.14829 16.3983 24.3901
Pd 11.537 22.6235 12.1663
Au 22.5644 34.8937 21.6959
Au 21.8782 27.3617 29.9692
Au 23.0499 33.811 17.1533
Au 19.7189 21.1489 25.3093
Pd 11.5469 15.9181 13.498
Au 9.82781 29.2712 17.727
Pd 23.0443 28.9877 12.2941
Au 17.1474 10.3512 27.8697
Pd 10.3705 14.9273 25.2952
Au 19.2495 13.596 27.8683
Au 8.28973 12.6539 16.2981
Au 24.6033 33.0793 22.2953
Au 17.9288 33.3323 13.1535
Pd 13.7776 11.3529 21.8519
Au 17.6913 13.2132 19.0928
Au 34.2802 21.7328 19.5263
Au 29.0488 20.8762 25.3906
Au 19.0556 9.12097 12.0859
Au 31.1198 21.2897 30.366
Au 27.1663 11.2382 15.8325
Au 25.228 8.42951 26.6834
Au 20.2208 28.4779 23.3255
Pd 17.0115 23.1125 10.3529
Au 13.469 24.6124 12.7121
Au 10.6025 27.2744 25.0227
Pd 23.0166 21.3457 12.9441
Au 18.6589 31.6285 11.233
Au 23.7853 23.756 11.373
Au 11.4104 9.97727 13.7753
Pd 25.2016 28.3873 18.5247
Pd 20.1382 27.7975 27.8103
Au 23.8796 30.7338 27.441
Au 17.8119 34.5338 21.0929
Au 30.9524 26.0673 19.1214
Au 22.9484 28.0907 27.5734
Au 10.7267 20.2105 25.9143
Au 15.2801 13.743 6.06822
Au 28.8076 16.1574 23.5012
Au 11.5907 10.1344 23.23
Au 14.2861 17.2314 17.0367
Au 17.8186 22.8403 26.7876
Au 26.9612 16.5536 16.5808
Pd 10.7449 13.6331 15.0601
Au 24.2318 21.0789 10.4994
Au 30.2789 18.9539 29.5532
Pd 21.9564 10.5015 20.2602
Au 19.569 20.125 7.70169
Au 24.7969 7.74283 23.8808
Pd 13.4792 11.0439 19.1831
Au 17.6367 18.8215 11.4957
Au 27.9878 27.8742 19.2463
Pd 24.3002 21.1826 27.1877
Au 22.4336 11.2783 15.2799
Au 10.8647 13.078 9.39193
Au 16.045 18.3574 30.5835
Pd 29.1509 23.6744 25.874
Pd 27.7715 10.0912 13.6042
Au 30.9651 28.5606 20.3362
Au 25.6782 28.4559 11.484
Au 18.6371 10.0449 25.221
Au 16.1257 31.4896 12.4719
Pd 20.2146 23.4837 27.7142
Au 32.9832 18.616 13.5424
Au 21.8853 13.6975 16.7668
Au 25.7659 22.2363 12.6371
Au 16.5685 16.5146 12.7017
Pd 27.1189 18.1373 8.49212
Au 16.6279 29.6054 10.5228
Au 7.35989 15.2635 11.8819
Pd 29.7743 16.1509 20.114
Pd 15.4684 12.8862 8.57009
Pd 25.3079 19.7988 31.6244
Au 20.3686 33.5189 17.055
Au 14.1855 26.09 25.7084
Au 21.6003 27.0418 20.5609
Au 8.25183 27.3898 16.3834
Pd 25.5831 14.3206 22.6221
Pd 17.2267 22.1284 24.2184
Au 24.3101 31.9385 24.8957
Au 16.1532 18.5464 21.6663
Au 22.1863 20.448 34.614
Au 4.36691 21.2312 21.0661
Au 27.2108 14.4913 25.0733
Pd 6.39885 22.5217 19.793
Au 28.0887 17.346 28.5814
Pd 30.1346 21.6718 15.8727
Au 13.5119 11.6716 24.593
Au 18.1295 6.56286 19.1506
Au 20.8992 34.4455 19.6543
Au 14.7254 10.1279 16.6856
Au 16.87 24.8004 25.0838
Au 16.437 19.7395 16.8793
Au 15.3956 27.3121 9.67079
Pd 14.2134 19.4786 15.222
Au 4.70646 16.7921 16.2869
Au 13.4049 13.1264 10.4218
Pd 23.0828 17.4854 31.1234
Pd 21.5736 7.1103 17.1234
Au 19.1741 8.58389 28.6872
Pd 22.8416 15.3446 14.9409
Au 19.4431 13.7675 21.2254
Au 15.8454 13.5289 31.4667
Au 27.6837 14.8715 18.5985
Au 26.5627 22.3574 31.8951
Au 19.6973 16.8827 12.1023
Au 9.12903 12.5718 24.3465
Pd 32.292 20.1362 28.1117
Au 7.8278 27.9789 19.1236
Au 13.0794 27.2591 11.8466
Au 14.8076 16.716 26.2103
Au 17.7828 8.87994 20.4088
Au 16.204 14.8794 15.6082
Au 15.3657 33.831 21.858
Au 28.3976 25.1685 19.8312
Au 13.3349 22.0876 8.0034
Pd 20.553 32.9191 12.6134
Au 17.6014 26.2329 18.7481
Au 17.2506 20.0336 26.2121
Au 14.0236 12.4318 29.7312
Au 5.50893 16.2865 23.3556
Au 23.2781 8.75419 15.702
Au 7.02595 14.0152 23.563
Pd 22.7255 9.37266 12.9943
Au 19.5074 23.8823 9.98425
Au 24.5929 27.9124 9.12527
Au 12.9478 21.7737 16.3359
Au 26.1879 24.4427 22.0351
Au 32.9892 13.0715 21.4687
Au 33.4991 22.5618 24.0615
Au 24.582 14.3422 7.92578
Au 21.4294 24.6562 18.8027
Au 22.1131 11.1571 10.9848
Au 29.7278 22.5793 19.7401
Au 14.5984 22.9273 20.8926
Pd 10.2475 17.6976 9.48074
Pd 16.3354 27.4406 16.1792
Au 6.24817 17.9322 18.1279
Au 32.7492 20.5469 15.6409
Au 24.8398 7.49675 13.8184
Pd 27.1692 27.0973 21.8772
Au 17.537 7.84708 26.6022
Au 31.3093 25.34 28.2142
Au 30.7508 23.9002 30.4514
Pd 14.6082 19.3508 27.0934
Pd 22.8411 14.3876 22.7816
Au 27.5275 26.9786 12.9085
Au 26.0973 17.983 14.4951
Au 27.9334 19.6238 30.846
Pd 32.9771 19.5145 20.4887
Pd 23.8228 20.1283 17.3111
Au 20.4642 18.3935 31.8411
Au 32.7136 18.231 25.8153
Au 16.195 10.8397 30.4833
Au 24.9927 13.8947 32.0056
Au 31.7264 20.8621 25.6349
Pd 22.6959 26.7947 13.8031
Au 17.8777 16.0391 20.0847
Pd 28.2576 20.0627 27.9529
Au 13.1325 27.8565 23.6897
Au 24.2819 11.4208 8.78629
Pd 20.5821 12.9668 8.62934
Au 31.2251 24.3922 21.5008
Au 20.7296 7.14774 12.6636
Au 31.8137 17.5622 18.8299
Au 28.8582 9.02273 15.9145
Pd 24.5917 12.7322 15.6331
Au 20.2353 25.4316 14.2199
Pd 25.4021 15.2696 14.5497
Au 20.0027 18.5819 10.0244
Pd 17.0639 29.6855 20.2114
Pd 24.368 26.3279 26.274
Pd 25.8056 9.11735 11.9499
Au 10.7573 17.5911 6.19889
Au 21.7996 10.4621 8.43818
Au 14.1775 29.7693 12.0138
Pd 20.0267 25.1925 7.59672
Au 4.22683 21.7644 18.2935
Au 26.828 12.1014 20.9666
Pd 29.7409 26.6374 21.6263
Pd 6.93625 21.269 22.4173
Au 27.6753 18.0866 25.654
Au 27.3069 22.4689 24.1059
Pd 23.8069 17.1263 28.5041
Au 11.0017 11.136 25.5806
Au 4.30711 21.0556 14.0608
Au 12.1356 21.9805 30.1652
Au 21.0843 19.9646 19.6964
Pd 18.4603 21.178 15.2479
Au 19.248 11.0989 20.536
Pd 17.2725 26.6522 29.1337
Au 21.9934 17.4692 26.4182
Au 22.7727 25.0137 24.6409
Au 19.4111 18.4712 26.9154
Pd 12.678 18.2276 25.2676
Au 24.2483 30.9926 20.0583
Au 12.7192 21.3498 27.6157
Au 17.9983 19.4944 23.6403
Au 7.93121 26.4824 25.0908
Au 25.3541 30.6471 13.0975
Au 18.078 11.6283 12.1448
Au 24.2791 19.7094 7.64566
Pd 13.3378 20.3935 20.8373
Au 24.162 17.3172 16.5297
Au 22.7152 16.908 23.799
Au 24.555 25.1625 8.69118
Au 30.0298 20.0354 11.5967
Au 18.0474 16.5079 9.82909
Pd 16.1898 17.972 18.9897
Au 32.0989 23.1597 14.8122
Pd 22.8039 24.1245 14.0845
Pd 26.0022 13.1423 9.81554
Pd 26.3956 15.7833 9.44519
Pd 12.6648 17.8528 10.78
Au 19.0951 15.0765 7.74073
Pd 19.605 22.2755 19.8347
Au 16.0613 18.7973 4.7365
Au 16.5918 31.1296 26.8069
Pd 28.8504 26.007 17.3022
Au 23.0767 31.9163 12.5445
Au 25.2418 23.4607 15.0417
Au 18.6678 15.9844 14.5601
Au 31.1062 17.6124 11.9531
Au 28.111 17.9895 18.9812
Au 30.1303 13.8109 24.7872
Au 28.0004 15.4083 13.9862
Pd 17.1356 23.5098 19.8589
Pd 18.0515 29.5645 12.8015
Au 33.9184 21.9058 26.7182
Au 15.6134 11.37 14.2971
Au 23.4952 26.34 18.5725
Au 28.3616 20.736 17.8556
Au 27.672 24.2173 12.5131
Au 29.0009 30.3583 19.411
Pd 21.3089 9.94444 17.3299
Au 33.9645 18.0964 23.0682
Pd 16.7576 17.8366 27.9337
Au 24.7586 7.7024 21.0261
Au 19.337 31.7887 14.8122
Au 15.015 29.7232 22.3623
Au 18.5808 28.4855 25.5785
Au 12.1426 15.8206 21.4153
Au 28.6659 14.7902 29.5978
Au 15.8815 20.7496 11.0993
Au 13.4486 17.8065 31.4703
Pd 22.9838 21.032 21.4986
Au 27.4191 11.5131 11.4023
Au 28.3738 23.3958 17.3808
Au 21.3461 7.42377 23.6184
Pd 18.3317 19.7992 19.0449
Pd 26.3073 8.47567 15.783
Au 24.5735 26.0577 15.8138
Pd 8.78776 19.244 24.2716
Au 9.45775 11.9257 18.7011
Au 14.2328 26.7562 28.4362
Au 24.6644 19.0858 34.1059
Pd 21.971 8.57043 28.2088
Au 12.9728 28.4635 26.3398
Pd 23.8966 23.3428 22.7722
Au 11.6215 20.1867 9.23664
Au 29.981 13.6582 27.5115
Au 23.717 22.4726 8.28206
Au 30.4003 10.1657 17.7519
Au 31.545 17.529 21.7352
Au 7.86041 14.3386 26.1404
Pd 16.0198 21.5668 8.42756
Pd 25.1292 28.0139 14.0633
Pd 18.3469 24.6203 12.3608
Au 24.6429 14.7177 17.3113
Pd 18.1827 34.3211 18.4399
Au 29.6676 16.6135 17.2123
Au 21.96 19.6792 24.4152
Au 18.5909 7.41005 24.0507
Pd 30.2505 28.3042 17.7525
Au 26.3837 16.8026 11.9209
Pd 20.081 33.8492 22.3193
Au 18.8724 7.7703 16.7062
Au 7.7351 22.9949 17.3767
Pd 15.8146 9.90371 25.5537
Au 31.7662 12.3356 16.6919
Au 17.7364 28.0774 8.53551
Pd 11.463 19.9862 23.2838
Au 23.5624 25.6314 21.5525
Pd 24.991 20.792 19.6285
Au 18.3185 21.5125 30.8122
Au 11.5922 13.0006 23.1966
Au 6.42749 22.8237 13.445
Pd 28.3798 10.7181 22.8685
Au 11.8161 26.0458 27.2472
Au 9.83076 28.7018 14.7613
Au 5.51905 23.4872 22.326
Au 10.4319 27.8517 12.3
Au 13.9072 19.9082 17.9955
Au 21.9582 20.3869 9.11267
Pd 9.78635 14.6193 17.3131
Au 11.2585 20.11 18.6767
Au 20.5255 11.1476 13.256
Au 11.6184 30.4056 16.1614
Au 9.42352 18.1194 28.8345
Au 15.8479 24.686 27.6664
Pd 27.4828 26.9223 28.6248
Au 17.9125 19.4634 32.5173
Au 7.30992 18.0908 12.6982
Au 20.1976 13.6912 32.6894
Au 11.3859 22.7505 25.345
Pd 23.5821 23.9166 17.1876
Au 25.9939 21.1528 29.3302
Pd 15.9675 14.6685 10.5433
Au 20.0843 17.7268 24.1392
Au 25.7324 21.5272 22.0754
Pd 15.911 23.0322 12.9521
Au 28.6933 30.3592 24.5269
Au 18.0801 34.0371 15.7545
Au 23.8885 33.6735 19.6945
Au 23.7154 29.3012 29.8732
Au 27.2207 25.4131 15.0792
Au 26.5577 32.4731 20.2682
Pd 19.1413 23.275 22.5349
Au 24.7087 24.4309 32.1941
Pd 28.4082 29.1601 27.092
Pd 21.0115 16.0876 21.2476
Pd 14.0358 26.9668 14.5464
Pd 21.3802 10.1764 24.7859
Au 9.60549 14.7389 22.6842
Pd 9.3603 17.284 16.7056
Au 10.7149 17.2972 23.4635
Au 20.1076 17.5624 18.9554
Au 26.3882 12.773 13.5557
Au 18.3923 7.4386 14.0317
Au 10.832 11.2985 20.9588
Au 22.2726 10.947 29.6707
Pd 25.5232 16.6891 18.9555
Au 13.063 30.5 24.2758
Au 23.5259 6.15578 19.0234
Pd 21.2601 24.9046 11.8801
Au 27.201 15.826 21.1024
Pd 8.31021 23.4633 21.5144
Pd 19.905 9.42094 22.5145
Au 15.4408 6.64627 19.7116
Au 28.9616 12.3779 17.7555
Au 10.2112 26.6938 18.4919
Au 19.9736 29.9839 19.5259
Au 20.6736 30.2482 13.0199
Pd 20.7177 15.8617 30.9099
Au 25.124 25.4482 13.0674
Au 28.7662 16.7936 10.5141
Au 15.7319 34.9383 19.4212
Au 15.6188 16.2214 5.05375
Au 26.168 25.9286 10.6527
Au 29.1903 21.5947 32.3159
Au 27.8422 20.3801 13.3819
Au 28.589 28.9528 29.7916
Au 22.5936 29.1483 18.9299
Au 27.1815 15.3939 31.8738
Au 9.50576 25.0824 23.4202
Au 8.56834 20.9019 12.8156
Au 19.3737 30.8847 26.8763
Au 15.8255 20.7359 19.6572
Au 15.7199 26.9368 23.6677
Au 13.4586 20.8495 24.9514
Au 20.4159 12.2375 18.4986
Pd 18.838 14.0739 16.6577
Au 13.9885 9.04939 14.1801
Au 15.9836 12.0562 23.7863
Pd 11.7683 16.1984 16.1724
Au 29.7842 24.6063 14.8787
Pd 6.66238 20.5526 17.6764
Au 12.2787 9.06705 16.2685
Au 20.2392 8.3792 19.2552
Pd 25.7235 20.6353 15.1396
Pd 29.2521 13.449 20.3097
Au 32.8883 25.2389 23.6209
Au 24.9192 14.4201 11.9542
Au 19.531 10.8023 9.94111
Au 18.1694 23.7887 15.0137
Au 20.2399 8.0096 26.169
Pd 29.0001 12.8339 13.275
Au 27.5844 9.88745 18.166
Pd 20.2051 17.5061 7.60562
Au 22.4259 6.53974 14.5158
Pd 27.5106 25.2813 24.2775
Au 24.0977 30.4127 10.4058
Au 21.2635 11.9721 22.5331
Pd 25.7948 26.1014 19.9101
Au 24.4443 9.3871 29.129
Au 30.2837 18.5465 26.8713
Au 19.8662 18.8846 34.4128
Au 17.6413 21.2396 21.5057
Au 19.7865 24.0611 25.042
Au 33.7163 15.5189 22.4401
Au 22.0864 7.465 20.9615
Pd 32.6624 26.5201 21.1844
Au 19.291 25.0973 20.5775
Pd 21.6752 23.393 21.1219
Au 26.9982 9.53305 24.9506
Pd 6.27283 25.1918 20.3016
Au 27.0971 13.6103 27.6662
Au 23.0875 21.8448 15.5597
Au 22.1287 23.045 32.6681
Au 24.57 32.5145 15.0355
Au 28.2757 18.9202 15.7741
Au 27.136 17.9711 32.9128
Au 30.6538 19.2386 17.0874
Au 30.2604 25.353 24.0251
Au 22.0153 15.3437 12.2644
Pd 19.1607 32.4261 20.1208
Au 16.7244 23.3803 32.0005
Au 18.2514 14.5473 12.0633
Au 12.2043 11.4069 27.976
Au 32.0726 20.0069 23.1196
Pd 28.6226 17.8392 13.0331
Pd 16.3692 24.7035 16.8747
Au 13.6659 8.36711 18.5446
Au 15.2754 24.1931 8.49535
Pd 6.84015 20.4056 14.8102
Au 22.9683 13.5049 9.94601
Pd 27.1253 13.8632 16.0892
Au 26.8954 22.9475 19.7912
Au 32.8635 24.0798 19.297
Au 26.4202 20.729 8.97808
Au 14.043 26.2919 17.2305
Au 8.87016 26.0789 20.7932
Au 10.0459 17.5579 26.1826
Au 23.9876 22.2325 30.8247
Au 13.6021 10.9786 12.3821
Au 17.5171 17.3045 34.0534
Au 9.0594 20.0428 16.4415
Au 15.4481 29.3561 25.1018
Au 17.5503 28.8968 22.8733
Au 17.9819 12.0139 32.204
Au 27.0165 20.4854 33.6689
Au 17.5157 22.0356 17.6795
Au 12.5879 17.822 8.03842
Pd 18.1768 16.7877 31.4825
Au 20.9263 8.84875 30.6342
Au 19.3024 23.5723 32.8302
Pd 14.8258 22.8434 18.0666
Au 22.3366 22.8003 26.1434
Au 25.8105 9.79328 22.4768
Au 28.2582 32.4665 17.9335
Au 23.2515 7.1166 11.7613
Pd 17.4213 17.2793 25.3198
Au 16.835 6.80525 21.9602
Au 14.3542 30.3768 19.656
Pd 7.08977 17.9014 15.5495
Au 19.0692 27.8314 20.7985
Au 9.37719 19.5262 7.72349
Au 18.2283 25.623 31.4737
Pd 15.3757 18.9029 24.4778
Pd 23.7871 16.0215 10.1715
Au 13.8894 25.2234 22.2251
Au 5.04551 19.2497 22.7745
Au 26.1088 16.9953 23.4541
Au 9.76661 13.972 12.3072
Au 30.515 19.4808 14.2355
Au 15.1907 17.7639 7.34315
Pd 29.7328 14.1741 15.7234
Pd 19.9464 25.5609 29.3849
Pd 9.3984 11.746 13.8066
Au 23.187 28.257 16.4578
