923
Atoms. Timestep: 21285
Au 6.07767 14.6508 24.3827
Au 16.5419 26.5443 9.67272
Au 32.4888 14.8664 24.9096
Au 11.0161 22.8311 8.97895
Au 11.9386 27.3252 27.1182
Au 18.578 23.5774 26.0887
Au 30.0463 15.6739 16.0055
Au 14.3832 12.3466 26.843
Au 23.4938 28.0005 15.1974
Au 14.5125 16.5541 29.7806
Au 21.371 25.0326 6.15142
Au 13.7676 12.0665 29.4569
Au 21.3916 17.8382 6.46754
Pd 17.5317 13.5688 10.0391
Au 14.8315 23.5025 12.7204
Au 29.2441 23.4941 12.8815
Pd 11.0741 20.328 21.8621
Au 14.8817 18.4571 22.5503
Au 18.9618 22.1082 21.7343
Pd 15.9497 27.4747 17.8827
Au 34.2105 24.367 18.181
Au 29.5075 13.9146 11.6355
Pd 32.8731 17.4296 25.0836
Au 14.7836 14.6405 10.9022
Au 25.0372 14.2273 8.19484
Au 23.3331 33.8118 20.8724
Au 23.2931 9.10819 16.7925
Au 23.9684 18.6121 14.9491
Au 25.1851 25.7644 18.8747
Au 15.8661 31.7284 18.7317
Au 6.98907 24.591 15.596
Au 23.2459 27.6856 30.352
Au 14.699 8.33655 24.422
Au 17.2446 14.5906 21.3582
Au 21.0406 9.06976 14.7199
Au 12.9597 21.6159 13.383
Au 14.3713 9.43109 15.8566
Pd 18.8016 25.6822 8.64111
Au 21.4732 23.9949 25.8991
Pd 7.22986 20.5918 22.343
Au 20.839 26.9453 15.6029
Au 18.485 13.7762 29.3415
Au 13.9476 6.55947 15.8196
Au 16.004 20.4959 31.9131
Au 24.2718 17.0149 25.7699
Au 27.6932 27.6409 22.3416
Au 14.6138 10.8009 13.4968
Au 11.5873 29.897 26.3184
Au 26.6706 19.3064 8.34541
Au 20.6066 15.1581 6.24234
Au 9.07217 25.731 17.666
Au 8.87444 10.6183 18.9745
Au 14.0256 15.6027 27.0083
Au 19.7945 15.0203 10.7767
Au 28.3054 17.5446 9.56995
Au 17.7065 11.656 22.494
Au 30.255 21.2109 26.0431
Au 7.64653 16.5018 13.1595
Au 10.6853 27.8386 21.6596
Au 28.7303 9.09056 24.9317
Au 15.9297 18.5977 11.7788
Au 27.3906 24.2018 18.224
Pd 27.7019 20.0572 13.7931
Au 21.2448 26.6446 32.2057
Au 11.8715 10.4026 14.4045
Pd 20.4044 23.2972 23.6293
Au 25.0626 18.5291 23.6418
Au 21.0207 26.1531 29.6423
Au 32.7173 18.0107 19.181
Au 18.0264 19.9777 12.6478
Au 23.6336 6.26404 17.0322
Pd 13.1751 12.4794 11.7701
Pd 25.8951 14.5091 26.0304
Pd 26.7015 12.7612 27.9978
Au 20.7003 9.58074 10.5616
Pd 14.1271 29.5416 27.1183
Pd 23.4864 28.9318 25.8279
Pd 17.4872 20.2042 9.82555
Au 25.1243 20.6798 28.2905
Pd 17.6824 32.6386 24.6318
Au 24.6549 13.1011 23.4158
Pd 28.2579 11.83 16.453
Pd 10.1508 19.0439 28.9097
Au 25.3825 10.9929 11.722
Au 24.1165 31.4243 26.6388
Au 10.6824 13.3179 10.1313
Au 20.9265 12.6156 30.687
Au 6.80174 21.8097 15.7318
Au 10.418 28.4987 24.3602
Au 8.13864 16.6485 15.922
Au 14.5133 19.6508 25.0781
Au 16.4133 21.8429 25.398
Pd 26.0665 26.5422 15.4406
Au 9.65832 26.4009 28.4256
Au 20.0454 5.84212 18.8597
Pd 25.2786 27.1417 21.497
Au 11.873 23.0677 23.4552
Au 14.4252 28.4249 10.473
Au 22.8808 15.4492 27.6983
Au 26.3777 29.56 26.2753
Au 29.3461 17.5663 28.5345
Pd 16.1566 24.3463 7.56916
Au 12.0847 25.7193 19.3995
Pd 16.5616 26.9462 12.327
Au 24.3803 11.8314 9.05805
Au 25.5053 21.3369 14.932
Au 17.0624 20.6999 16.7953
Au 18.5057 17.5967 11.0282
Au 6.39565 25.9053 17.885
Au 28.9613 19.9844 16.4397
Pd 16.1744 8.25198 14.0824
Au 16.471 21.4119 22.5386
Au 9.11381 28.7432 27.0806
Au 7.91969 14.056 14.6712
Au 12.4381 14.615 29.2306
Au 30.7075 15.8954 13.3738
Pd 21.2603 29.5736 14.9308
Au 5.95897 20.3018 18.1769
Au 11.3782 15.9125 9.40941
Au 13.9136 33.5098 18.3285
Au 20.2128 14.3035 15.7284
Au 8.06442 12.0286 16.7238
Au 19.0811 25.0383 21.7421
Au 31.5879 11.0383 18.5134
Au 33.8851 19.4966 23.7075
Au 22.3071 27.5443 6.39077
Au 24.2576 12.5404 13.6961
Au 23.7291 19.8793 32.7759
Au 27.2909 28.9745 15.8563
Pd 22.2638 18.7466 24.2736
Au 18.1837 19.2317 21.3853
Au 22.2922 31.527 19.4828
Au 20.6928 28.7594 30.4105
Pd 14.9373 29.5708 22.627
Au 19.1231 18.7748 28.8524
Au 7.16926 19.1547 16.0204
Au 19.1688 24.7748 32.6695
Au 25.8557 7.25716 14.4257
Au 18.1125 31.3663 12.0998
Au 15.2016 21.1946 10.9315
Au 20.4926 20.5194 20.243
Au 8.86868 26.3805 22.9853
Pd 18.837 15.8902 17.6766
Pd 7.45391 19.7672 24.8798
Au 12.7438 14.0802 22.3254
Pd 23.1976 15.8621 7.09066
Au 19.678 27.1099 6.49699
Au 20.1209 16.1115 23.2166
Pd 12.7664 23.7501 30.745
Au 17.2359 12.2444 7.68413
Au 33.1022 21.1964 14.4929
Au 11.7099 21.2223 30.001
Pd 22.7764 10.1615 12.9396
Au 27.5162 15.2318 14.6767
Au 6.90726 17.74 18.3813
Au 11.8127 12.4364 27.6694
Au 6.26136 26.4605 22.4072
Au 26.0041 9.03301 25.6227
Au 21.5171 13.1564 13.6048
Au 25.711 22.9487 24.988
Au 10.934 17.2414 15.9451
Au 7.4864 20.2318 13.5224
Au 20.2175 12.419 10.625
Au 16.3334 12.7275 14.9735
Au 8.07987 15.8568 23.3483
Au 17.1873 5.61641 18.4832
Au 27.7484 17.9735 23.685
Au 7.80637 28.5811 21.4595
Pd 21.3489 20.6132 28.4473
Au 24.0593 18.4427 7.35978
Au 23.3514 29.7652 13.0342
Au 16.5842 9.87572 8.70211
Au 9.30858 15.9255 11.1228
Pd 23.4278 19.3517 21.6964
Au 29.4301 13.2523 14.3254
Au 31.8904 20.4031 12.1274
Pd 24.0629 33.3087 23.668
Au 31.078 11.1256 21.3212
Au 19.6163 30.21 10.2171
Pd 20.2026 23.3644 19.6593
Au 22.4973 16.2487 14.5908
Au 17.0221 19.2465 24.0611
Au 20.1375 18.8648 26.2968
Pd 25.8367 23.9248 16.0412
Au 27.5156 10.9656 29.8293
Pd 21.9507 28.9164 10.7797
Au 13.6392 7.83507 18.2377
Pd 27.0206 22.3289 20.1452
Au 16.7024 15.1691 30.7961
Au 27.3314 8.06147 20.4778
Au 22.4088 27.239 17.926
Pd 15.6212 23.8899 10.1493
Pd 27.9694 15.5963 22.3481
Pd 11.9057 20.2922 24.493
Pd 21.0639 7.34335 16.8566
Au 9.12441 23.2857 16.4721
Au 10.0969 31.2624 27.8568
Pd 23.1639 16.968 19.9164
Pd 15.3755 14.1062 28.7632
Au 25.9783 32.8166 21.8312
Au 17.0403 7.46464 25.4043
Au 23.3499 19.396 29.9972
Au 26.1567 29.9572 21.8096
Au 22.9904 16.6496 22.8166
Au 21.2492 13.2169 27.848
Pd 17.6246 9.46059 20.6569
Au 22.023 24.7256 14.3026
Au 6.84851 12.6366 19.3095
Au 12.2181 17.3686 28.5235
Au 20.9931 28.9778 8.22211
Au 17.8318 29.5882 30.3486
Au 32.0474 14.0554 15.049
Au 26.788 20.6251 24.2372
Pd 13.5401 22.2219 25.4487
Pd 12.5021 15.0115 15.7637
Au 14.0658 26.1326 31.3238
Au 12.9505 13.6486 18.0672
Au 27.556 9.12914 15.484
Au 16.6262 17.0165 16.6701
Au 32.0481 12.1665 24.6339
Au 34.1596 22.1071 22.4275
Au 25.1108 28.0276 17.4321
Au 19.1653 21.3 30.0269
Au 9.16137 13.5238 12.3345
Au 25.2256 15.058 31.4237
Pd 24.8477 9.73278 14.4521
Au 15.2877 12.844 22.3769
Au 13.5109 28.0913 29.4223
Au 10.7176 30.0499 17.4759
Au 12.7554 34.0607 20.6734
Au 19.752 11.3443 20.577
Au 31.3577 18.8333 27.0251
Au 21.185 18.5711 13.6208
Au 32.8784 15.5048 20.3607
Au 18.6634 19.2254 32.0393
Au 23.2619 14.6237 25.1823
Au 22.7394 24.4642 19.0623
Pd 13.9648 18.5338 32.3965
Au 31.3981 23.6846 25.9961
Au 14.0044 28.4056 13.0654
Au 21.8759 26.7573 25.2395
Au 9.3639 30.3231 22.6977
Au 25.3356 27.033 26.2381
Au 22.6391 19.444 19.036
Au 17.0062 14.7041 26.7154
Au 9.03613 16.0346 18.7316
Au 24.571 19.0858 10.0424
Au 33.8877 18.8217 13.6029
Pd 28.5948 14.5647 19.7324
Au 15.0713 34.9018 23.0156
Au 33.5729 19.0913 16.2862
Pd 12.2521 29.849 22.6451
Au 22.0477 33.2769 25.575
Pd 29.4165 11.4991 23.8688
Au 19.7045 23.3335 34.9528
Au 25.4429 14.9957 28.7297
Pd 17.2521 25.5086 27.587
Au 23.0277 29.8793 17.2577
Au 23.6454 6.43353 21.7183
Au 11.3009 14.4453 20.1016
Au 19.5296 6.27866 11.6515
Au 21.7726 24.2648 33.3714
Au 19.5165 9.0928 22.6565
Au 15.6057 21.6789 8.23255
Pd 21.4412 30.6885 26.4327
Au 27.0908 9.17879 12.8402
Au 15.0432 16.1091 32.8136
Au 27.8603 10.3782 27.153
Au 14.7601 32.2509 27.9683
Au 26.27 12.6498 18.6873
Au 22.9691 14.0162 15.9695
Au 26.624 26.7765 11.6977
Au 16.1262 31.0638 25.9798
Au 7.813 19.3042 27.5569
Pd 20.0966 31.6037 24.4269
Au 17.1209 23.3689 33.9313
Pd 8.47858 14.3981 21.0521
Au 14.9254 22.9119 20.7345
Au 10.8246 22.8926 14.4018
Au 20.4051 21.1541 13.1105
Au 14.7052 21.9825 29.9864
Au 20.5702 17.8007 18.6808
Pd 27.7059 26.8845 17.6941
Pd 10.3676 27.6455 16.3552
Au 15.139 19.0202 17.9389
Pd 19.7332 21.0508 8.31136
Au 23.2101 13.7483 29.9043
Pd 11.6934 16.2465 18.2467
Au 27.5875 24.2195 10.5883
Au 34.0386 15.9648 22.9685
Au 24.1416 10.5145 23.6846
Au 11.1029 32.0109 21.4559
Au 16.0915 27.8765 20.9397
Pd 23.9585 20.7822 24.637
Au 17.1332 29.1143 10.7863
Pd 22.5241 20.0385 11.6411
Au 13.6461 17.1747 11.0887
Pd 27.1088 19.0974 29.0734
Pd 26.9571 24.9413 26.4149
Au 25.3563 10.3956 28.2598
Au 18.4272 16.8392 25.435
Au 16.1713 7.63157 16.9082
Pd 21.7562 19.5623 16.2392
Au 27.0775 25.1774 20.8406
Pd 5.62012 15.958 22.0525
Pd 19.7259 20.3528 17.7033
Au 23.6071 12.0888 17.9712
Au 15.6378 9.82609 18.7349
Au 8.50855 18.6727 11.4779
Au 22.9607 26.673 20.5844
Pd 28.0853 17.2341 17.5106
Au 31.351 9.74248 23.7503
Au 17.3803 31.5479 28.5018
Au 18.5875 29.1722 15.6349
Au 16.1745 18.5168 33.8624
Au 14.2225 20.9239 16.0469
Au 31.4825 25.6334 21.9854
Pd 5.87132 18.9435 20.5992
Pd 15.4797 9.83435 26.5095
Pd 24.4271 23.4031 13.6944
Pd 18.41 8.06196 18.2021
Au 9.41736 18.7689 17.6315
Au 23.9894 12.7942 27.3222
Au 23.7796 22.6267 32.3895
Au 8.35153 14.7781 26.0003
Pd 20.6787 9.81782 17.4328
Pd 18.6158 8.29579 15.5144
Pd 14.244 25.6756 16.7987
Au 21.0761 31.0816 12.3842
Pd 21.9686 18.8574 9.02347
Au 29.8837 9.69552 16.8993
Au 26.4966 13.5546 21.2278
Au 23.167 23.1853 23.6809
Au 18.0512 13.2302 17.105
Au 25.5617 15.7348 23.5699
Au 26.2434 17.6556 13.6719
Au 18.7984 18.3559 34.627
Au 18.1194 22.1357 14.6537
Pd 15.3599 32.6588 16.2369
Pd 14.3052 16.4217 18.3153
Au 14.3153 30.7595 14.5502
Pd 18.2751 27.5735 25.9534
Au 10.5088 10.9295 24.0375
Au 11.654 32.2171 18.8581
Au 29.5854 18.5957 12.3694
Au 34.4083 13.356 23.8241
Au 30.3768 16.294 10.6081
Au 22.9508 24.1083 9.65262
Au 21.5553 33.161 22.7988
Au 17.2171 22.7114 28.4376
Au 21.4065 20.89 22.8143
Au 31.8545 23.2043 13.27
Au 26.874 28.4196 19.6797
Au 9.8246 25.6405 12.0446
Pd 25.5284 28.3345 23.9562
Au 25.094 21.6769 22.288
Pd 20.8969 15.2623 29.8318
Pd 8.12941 21.785 26.2801
Au 7.79033 27.1962 15.7553
Au 16.0964 27.0468 29.54
Pd 13.5628 21.1149 18.7981
Pd 20.977 25.2277 11.3023
Pd 18.8819 21.0899 27.1501
Au 19.6623 34.3324 24.3599
Au 21.4564 28.8427 20.0743
Au 10.4319 24.656 21.4425
Au 9.18417 18.6585 22.9031
Au 22.4047 11.3449 15.5254
Au 13.5595 23.6603 8.32383
Au 12.581 16.7852 13.6867
Au 12.9323 9.73385 11.6505
Pd 14.0756 7.4572 21.9648
Au 34.3337 19.64 21.098
Au 18.8542 16.7546 30.5719
Au 19.4361 11.4372 15.491
Pd 20.9933 16.2578 8.64418
Au 12.1028 18.4382 9.04656
Au 9.98407 27.8638 13.704
Pd 12.2281 22.5434 20.7621
Au 17.07 19.3919 7.24368
Pd 14.7249 18.231 27.5185
Au 19.2846 18.3954 8.46416
Pd 18.8697 32.0787 22.1637
Au 14.9739 14.1187 24.8325
Au 34.1028 24.5951 21.0717
Au 25.2646 12.2524 30.2729
Au 10.3735 27.7463 19.0535
Pd 25.7434 28.5141 13.5894
Au 16.8991 10.3063 16.2381
Au 17.6758 27.2508 23.1425
Pd 24.093 7.88816 24.0478
Pd 15.7072 28.6122 8.23511
Au 8.24707 21.3961 11.2668
Pd 31.8708 23.2419 18.1314
Au 16.742 19.99 29.2997
Au 18.7405 17.1453 6.10603
Pd 29.195 12.9695 21.7028
Au 9.31474 11.6303 14.3732
Au 10.6205 23.4212 18.8101
Au 12.0268 29.3933 15.109
Au 16.2017 16.6933 9.82105
Au 33.0381 24.2333 23.6699
Au 29.5025 21.3055 20.8268
Au 14.5629 11.02 24.2517
Au 20.3039 28.8713 24.389
Au 29.3495 22.1463 18.1949
Au 22.0404 32.5104 28.1634
Au 23.3588 22.2462 29.7522
Au 28.2239 31.5909 22.4119
Au 18.924 28.7047 21.2212
Pd 26.0293 30.4721 17.7615
Au 14.215 25.8756 11.3205
Au 34.9809 14.089 21.3611
Au 33.4946 12.3487 20.0541
Au 22.349 14.0347 9.36077
Au 15.0881 5.9139 13.4597
Au 18.8697 5.70084 16.4053
Pd 7.65499 24.0588 22.0545
Au 19.5963 11.3646 24.5021
Au 21.1374 19.2209 33.5787
Au 17.0245 35.1859 24.8201
Au 28.3388 11.4476 11.8975
Au 15.1229 14.8282 16.2374
Au 8.02556 11.4433 21.3956
Au 20.6892 28.3663 27.3082
Au 13.4258 30.7592 17.2573
Pd 16.8428 24.9681 17.5347
Au 9.74378 14.2232 28.4225
Pd 21.012 30.4744 22.1114
Pd 18.4205 10.8127 18.3319
Au 22.5094 13.2749 6.91095
Au 30.4804 15.676 21.5648
Pd 15.5586 24.4595 29.7381
Au 29.2994 26.7996 20.2155
Pd 19.2993 14.4533 31.9928
Au 23.3252 22.1948 26.8797
Au 23.3239 26.5175 10.8863
Au 25.4572 23.6377 8.65345
Pd 17.7837 26.3906 19.742
Pd 13.9313 19.0743 13.4965
Pd 13.8701 17.6052 15.9174
Pd 22.9592 27.0371 27.7335
Au 17.8822 6.04689 13.8843
Au 21.4411 4.78955 16.7708
Au 24.1936 20.4686 17.12
Au 25.7472 7.89733 17.0415
Au 29.0312 11.8784 19.113
Au 13.8465 16.3815 8.40142
Au 15.4064 16.582 13.8046
Au 19.2533 13.9054 19.5529
Au 14.5115 11.625 7.6839
Au 27.3069 13.3698 23.785
Pd 11.4965 24.9943 16.6718
Pd 20.9952 18.1596 21.4333
Au 15.7819 32.239 22.846
Au 21.8089 11.3228 8.64638
Pd 18.7487 16.642 20.3969
Au 25.5603 20.8245 31.0179
Au 6.40452 21.9147 20.2607
Au 30.1519 19.2173 19.1303
Au 18.7023 27.5409 28.8453
Au 23.5378 25.9468 23.3294
Au 14.8275 23.4397 32.4395
Pd 14.7146 29.384 19.2495
Au 10.8621 28.8518 29.1128
Au 19.1342 26.4978 13.3999
Au 17.2744 22.8399 31.2889
Au 22.7736 24.4712 28.3992
Pd 11.4994 25.9682 23.7288
Au 12.9761 21.0081 8.68021
Pd 23.3184 22.9218 16.1518
Au 9.37548 16.8974 27.5211
Pd 33.1545 23.6771 15.638
Au 30.9692 27.8832 18.3374
Au 15.6603 14.3041 8.15924
Au 25.5974 26.2962 9.32577
Au 11.8892 8.31854 16.1791
Pd 17.7605 29.2057 18.7266
Au 20.093 15.7654 13.3425
Au 22.9596 17.2011 17.17
Au 22.8301 22.0733 20.7222
Au 16.2582 5.21364 15.8455
Au 28.0843 27.1271 25.1224
Au 25.6561 31.1864 24.1938
Au 17.6579 34.4168 22.3514
Au 13.2385 21.1324 32.1673
Pd 11.3774 11.6601 19.6018
Au 13.292 25.3803 28.5574
Au 20.7184 22.2385 15.6245
Pd 30.3781 13.378 17.2415
Au 20.1736 10.8862 12.8725
Au 16.8908 30.5895 20.9617
Au 19.5642 8.28316 25.3448
Pd 15.727 21.2309 13.6933
Pd 17.4951 16.93 22.8063
Au 23.7357 31.2609 21.7682
Au 24.2139 29.3008 19.7961
Au 23.7892 25.5918 7.47009
Au 22.8327 30.9697 24.2187
Au 15.0005 21.3238 34.1641
Au 18.6413 24.4755 6.2948
Au 32.0876 25.8783 16.626
Au 14.4456 28.1676 15.6779
Au 7.89945 17.1526 20.9601
Au 19.462 34.0304 17.9246
Au 24.3572 11.7726 20.9664
Pd 15.2679 9.94772 21.8599
Au 20.9591 31.7099 17.0622
Au 20.3909 16.6724 33.0516
Pd 28.1905 27.2607 13.9098
Au 26.4416 18.969 16.1527
Au 5.8925 23.1471 17.8349
Pd 23.1696 7.43828 14.5919
Au 25.0782 6.83311 19.4769
Au 18.1938 31.6495 17.2058
Pd 32.1902 13.6518 22.2925
Au 11.8457 19.6467 15.0747
Au 9.43943 30.2007 19.9379
Au 24.9565 32.2316 19.4253
Pd 8.39526 19.6601 20.1223
Pd 16.609 25.5182 32.0298
Au 27.145 19.7836 21.625
Au 32.4128 17.8122 22.0596
Au 6.16993 13.4031 21.8904
Au 7.69327 28.3889 24.3063
Pd 31.1953 19.2926 24.3686
Au 14.6959 26.7739 23.1608
Au 5.89446 27.4557 19.9614
Au 24.3211 26.1339 13.3932
Au 13.605 25.1925 25.1782
Pd 12.815 27.9133 17.7812
Au 27.9954 22.4836 15.1089
Au 19.5135 27.4739 10.6845
Pd 16.1617 12.7753 12.3294
Pd 12.5639 16.2726 31.5019
Pd 16.2767 25.156 21.8381
Au 17.7681 21.9423 6.55745
Au 29.4294 23.0701 27.9002
Au 16.9235 31.6805 14.4069
Au 18.4964 12.0008 31.546
Pd 21.0872 18.241 30.9586
Pd 19.5841 15.637 27.5443
Au 24.8174 28.6693 11.0255
Au 19.6871 13.5045 22.3168
Au 23.855 32.4066 16.96
Au 31.5848 28.0909 20.8889
Au 35.02 17.0104 20.3506
Pd 18.8928 12.7097 26.836
Au 10.6117 23.9686 29.1376
Pd 15.8997 23.3325 15.6507
Au 18.1502 9.96677 26.7801
Au 24.8294 14.1097 10.8643
Au 7.05187 25.2218 24.716
Au 16.12 29.9723 16.5954
Au 27.6812 24.7778 29.047
Au 25.4721 16.252 16.3528
Au 26.8381 12.4477 9.91315
Pd 17.7056 16.4189 33.0813
Au 22.2877 8.77015 21.8891
Au 12.9855 9.28848 20.4478
Pd 31.3572 18.8232 14.3888
Pd 17.1874 9.7176 24.1713
Au 18.3173 6.7345 20.7593
Pd 12.4785 32.3885 26.5831
Au 22.2119 10.4861 19.6445
Au 28.8012 18.7648 26.0738
Au 29.3982 12.2756 28.5675
Au 28.2297 15.6659 25.2317
Au 9.9172 14.5766 16.4531
Au 34.6416 16.9675 17.5601
Pd 26.8744 24.7562 13.4572
Au 20.8703 10.5356 26.9251
Au 18.7435 13.2472 13.1453
Au 27.0567 21.6482 9.66392
Au 16.2363 16.8081 7.08283
Au 12.8257 19.9314 11.1976
Au 14.7246 25.8033 14.1323
Au 15.1814 23.8554 26.9602
Au 18.3486 28.5121 8.3892
Pd 18.8458 21.199 24.3733
Au 14.1913 26.2464 8.57181
Au 23.3277 25.0683 31.0919
Au 17.2339 15.368 12.1677
Au 16.0886 12.3185 30.7799
Au 27.8209 14.4779 17.2265
Au 12.9671 10.569 17.7494
Pd 16.6025 29.1066 13.8164
Au 17.7557 14.4164 24.0824
Au 21.7533 7.74842 12.2337
Au 15.8579 28.2654 31.7471
Au 22.669 29.853 28.6811
Au 31.0701 18.032 16.8758
Au 22.9877 23.0065 7.07969
Au 17.8785 14.5181 6.33036
Au 32.4187 20.7492 19.2713
Au 31.3575 11.5179 15.6552
Au 29.8144 18.6283 21.8793
Au 24.7754 17.7181 28.4428
Pd 19.9857 25.7286 27.2126
Pd 10.9896 8.99651 18.7085
Au 23.3733 9.6187 10.3167
Au 10.7306 11.304 11.9736
Au 22.5092 31.9174 14.6756
Pd 17.6828 15.109 15.0088
Au 17.8488 18.5122 18.5914
Au 24.6049 21.0621 8.07944
Au 29.4552 20.2859 28.4431
Pd 22.8726 21.0602 14.1903
Pd 16.3819 17.9348 31.1008
Au 25.3041 18.0568 18.5062
Au 34.9672 19.515 18.5608
Au 11.3791 15.0964 26.5922
Pd 9.35908 13.2564 18.7537
Pd 15.7813 22.508 18.1975
Au 27.2685 16.4896 30.0116
Au 13.3538 23.6325 18.2233
Au 32.5804 21.6698 24.6168
Au 18.5281 24.882 29.9104
Au 18.9285 6.54003 23.4254
Pd 10.504 16.1433 22.0743
Au 27.4626 21.443 26.7982
Pd 23.5698 10.0783 26.3821
Au 27.4408 27.2998 27.861
Au 17.9416 22.9912 9.05122
Pd 27.5593 19.6713 18.917
Au 24.8823 9.68325 19.087
Au 25.0278 8.9011 21.6333
Au 23.0786 17.2849 32.8335
Au 29.7903 9.29153 19.6722
Pd 21.4039 16.5916 25.6118
Au 12.3159 20.13 27.4647
Pd 8.36808 21.3461 18.0882
Au 20.9187 33.9287 15.6716
Pd 25.0135 19.984 12.6959
Pd 30.1954 21.1717 14.0986
Pd 24.0122 14.7155 18.3605
Au 19.5054 19.7875 5.97528
Au 30.9205 25.9003 24.6928
Au 12.3136 18.9066 17.7607
Pd 29.2554 20.8238 23.5077
Au 21.5879 20.9316 31.41
Au 30.4007 16.8144 23.9763
Pd 24.1541 14.7798 21.1129
Pd 9.68513 21.5563 28.3248
Au 32.449 15.4217 17.5003
Au 27.5605 22.9506 22.6827
Pd 16.6238 14.9405 18.6751
Au 16.8133 12.1087 25.3377
Au 27.1543 10.8276 20.7759
Au 14.1544 14.0605 31.3474
Au 13.128 28.1299 24.7672
Pd 20.0081 22.5844 10.7466
Au 15.2272 30.1407 29.7182
Pd 20.433 22.4079 6.02277
Au 10.3911 9.87468 21.3909
Au 27.5319 13.7599 30.3284
Au 13.7273 21.0427 22.5806
Pd 22.1815 14.0563 22.8558
Au 6.92239 22.5817 24.1136
Au 16.427 25.5627 24.9958
Au 17.109 24.5711 13.5708
Au 26.7354 22.2201 12.3922
Au 34.1064 21.7224 17.1626
Au 7.89739 28.2986 18.3111
Au 30.9565 13.5599 26.7527
Pd 25.8582 16.7673 11.0625
Au 19.7737 23.7676 13.2057
Au 22.6783 11.118 28.9784
Au 29.7866 27.5447 16.0245
Au 25.628 10.8331 16.6578
Au 21.7582 11.4331 22.4306
Pd 21.7688 24.4709 21.6623
Au 25.5239 23.3619 27.969
Pd 34.7134 14.544 18.7376
Pd 27.5195 14.9697 9.90019
Pd 26.9926 16.8615 27.2279
Pd 21.2169 17.3951 11.1679
Au 25.0518 28.7122 28.4151
Pd 14.1649 14.221 13.6295
Au 17.9456 11.0002 10.8919
Au 16.8618 12.2557 19.9732
Pd 14.8719 26.8939 26.9843
Au 12.6002 30.8565 28.8766
Au 8.0172 23.8083 19.2405
Au 25.3837 18.0102 31.2632
Au 29.2539 21.178 11.4021
Au 15.4398 12.4187 17.646
Au 25.1839 25.962 28.9685
Au 32.1898 17.702 11.9663
Pd 22.3478 22.9105 12.0953
Pd 18.8471 24.7958 15.5812
Au 8.93398 30.6952 25.3845
Au 22.6613 5.18253 19.3289
Au 14.9008 19.0091 9.05565
Au 12.4297 12.8275 24.9186
Au 25.9288 16.7192 8.31838
Au 21.4252 26.3818 8.7603
Pd 13.3997 8.12477 13.7217
Au 28.7518 23.4285 25.157
Pd 10.8325 22.1958 26.0565
Au 28.2045 16.2702 12.2309
Au 16.9332 33.6983 27.0154
Au 13.7629 30.9045 24.6946
Au 19.6058 31.0033 19.6323
Au 25.6395 13.4786 15.9686
Au 15.8055 7.4515 19.9283
Au 9.43117 21.3452 23.7917
Au 18.7916 26.9095 17.3569
Pd 21.3964 15.1727 18.1144
Au 21.7479 27.4068 13.0137
Au 19.5563 32.8743 26.8477
Au 21.007 24.6019 17.1116
Pd 11.6642 21.8059 16.8176
Pd 22.2765 12.1512 25.1464
Au 28.6319 14.8569 28.021
Pd 12.9823 22.7862 10.838
Au 6.31692 15.3011 19.6404
Au 19.4942 21.9223 32.7658
Au 19.965 30.7707 28.7818
Pd 31.1645 13.5652 19.7232
Au 9.39232 18.3491 14.0507
Pd 32.0462 23.0338 20.8168
Au 19.4729 25.683 24.4652
Au 22.5874 7.79137 19.1914
Au 10.0987 15.623 13.8152
Au 21.9605 21.7309 34.1584
Au 30.3966 10.841 26.3178
Au 18.5928 27.2664 31.5564
Pd 17.4784 22.4538 11.801
Pd 14.5504 14.4071 20.1877
Pd 9.37806 20.7313 15.5295
Au 20.4225 26.1853 19.5451
Pd 22.1753 21.5267 9.38458
Au 12.842 15.8378 24.3287
Au 29.5388 24.0072 20.4583
Au 33.4418 11.2445 22.5284
Pd 24.0111 24.8298 25.9062
Au 22.1659 33.9885 18.2432
Pd 14.9818 20.9851 27.4958
Au 29.1721 25.9104 11.9096
Au 11.8719 25.1855 10.0589
Pd 23.1033 19.3213 26.8222
Au 29.9137 25.2167 17.9631
Au 14.1025 11.7838 20.0138
Pd 13.32 23.5473 15.2963
Au 26.1833 25.417 23.6904
Pd 30.0744 14.1077 24.0319
Au 13.924 19.3764 29.8388
Au 11.6115 18.7067 31.0899
Au 15.889 28.5093 25.0098
Pd 26.8457 11.6238 14.1849
Au 30.1882 27.9916 23.1524
Au 12.2405 26.6827 14.6736
Au 25.9485 19.127 26.2569
Au 21.2505 21.2273 25.5556
Au 19.8691 20.7277 35.4188
Au 18.3568 15.7739 8.5475
Pd 21.1461 15.539 20.8058
Au 10.9662 12.1218 16.6874
Au 16.1877 18.9925 14.9679
Au 32.2286 25.7067 19.4262
Au 21.567 6.90454 23.8483
Au 12.1684 18.1131 22.9826
Pd 17.7667 30.0042 23.6242
Au 16.6518 34.266 17.9019
Au 23.5318 16.5371 9.6811
Au 10.2981 12.6443 21.9289
Au 20.9722 23.5896 30.8631
Pd 15.8837 9.4298 11.4959
Au 9.75235 12.5121 26.0649
Pd 18.2338 24.9468 11.1326
Au 25.5385 17.3562 21.2592
Au 15.6067 16.9598 25.1264
Pd 16.9446 26.8293 15.3326
Au 13.1207 33.0471 23.1123
Au 20.849 27.0545 22.4125
Au 21.7417 9.49994 24.4943
Au 30.6838 25.6222 14.1735
Au 6.40183 18.1213 23.1578
Au 21.5481 17.6698 28.3247
Pd 23.7009 25.5247 16.3838
Au 9.27807 26.4387 25.7179
Pd 29.1689 29.4646 20.9655
Pd 20.1842 8.64159 20.0086
Pd 17.5706 20.757 34.19
Pd 12.4844 17.939 25.8832
Au 18.8563 8.48778 12.7645
Pd 10.8225 20.6721 19.1773
Au 9.2564 22.1196 21.0453
Au 19.3127 29.1273 12.9137
Au 19.3424 11.1542 29.0765
Au 14.2235 7.3655 11.3012
Au 12.2458 24.6598 12.8643
Au 17.4515 10.6443 13.5891
Pd 20.3529 29.1038 17.6439
Au 8.26937 22.9035 13.6268
Au 30.5719 19.0521 10.0551
Pd 17.6396 23.6384 23.5783
Au 33.1265 12.8522 17.3357
Pd 15.2045 11.8121 10.1131
Pd 25.821 11.7245 25.6435
Au 22.1131 20.4314 6.81497
Au 12.3584 9.00146 23.3399
Au 13.0283 16.5521 20.8202
Au 5.72111 24.7502 20.2759
Au 12.0984 29.7513 19.8663
Pd 20.2783 23.1833 28.2683
Au 9.55663 25.3824 14.6865
Au 20.2489 17.1939 15.8974
Au 11.3337 24.7446 26.5169
Au 28.7956 17.7324 14.8384
Au 20.575 23.6944 8.36707
Au 29.5042 25.6028 26.9808
Au 23.636 17.5955 12.3889
Au 31.4898 20.8931 16.6518
Au 24.8649 15.2372 13.6078
Au 10.3622 14.3314 24.0754
Au 20.8217 12.4732 17.7678
Au 15.0499 15.7286 22.5997
Au 11.9016 27.3268 11.8291
Au 22.1553 14.7737 32.2016
Au 10.1145 17.0091 24.8616
Au 26.7338 21.611 17.3686
Au 26.8588 7.86968 23.2709
Pd 13.0838 19.1609 20.4575
Au 7.34751 17.2423 25.6375
Au 12.3446 11.2296 9.47463
Pd 28.4835 12.8678 26.0472
Au 11.4834 13.1819 13.9441
Pd 8.32172 26.2405 20.2886
Au 10.3704 20.5456 12.7878
Au 25.0668 20.4583 19.8075
Pd 19.654 18.7411 23.6558
Pd 12.6143 10.2992 25.8496
Au 19.2137 10.6671 8.502
Au 24.8695 30.426 15.2903
Au 16.8075 6.84766 11.5754
Au 8.08888 12.9067 23.7505
Au 11.9918 14.941 11.8072
Pd 20.0374 19.8539 10.743
Au 26.931 13.7043 12.4568
Pd 32.8287 16.687 15.0972
Au 30.5221 23.3909 15.7443
Pd 22.0846 13.1833 20.1189
Au 16.9699 26.7192 6.86858
Au 23.2458 16.5289 30.3162
Pd 13.2556 24.9026 21.8024
Au 24.5641 8.18999 12.2516
Au 11.0871 31.7647 24.3088
Au 19.1113 19.6257 15.2237
Au 7.17595 14.508 17.2845
Au 24.5245 21.862 10.7541
Au 9.93051 19.476 26.0987
Au 29.3952 10.4971 14.1642
Pd 17.461 23.73 19.9321
Au 30.6437 23.1119 23.1664
Pd 11.051 17.897 11.7018
Au 28.1056 17.3436 20.2598
Pd 16.6966 28.9658 27.7351
Au 27.4885 21.9537 29.4973
Au 15.9879 17.2138 20.2974
Au 9.71085 9.82814 16.4466
Au 10.3376 23.0371 11.5696
Au 27.5316 9.6623 18.2463
Au 28.4199 25.15 15.6436
Au 18.6913 30.2514 26.3439
Au 16.6836 11.7338 28.2406
Au 15.6193 20.0832 20.3714
Pd 17.8586 21.1579 19.4508
Au 15.4617 33.9386 20.5527
Au 20.9667 6.31666 21.3396
Au 26.8667 10.5906 23.4267
Au 23.0938 28.6546 22.7327
Pd 25.0603 24.4534 11.3335
Pd 26.2392 15.615 19.2417
Au 13.5853 12.3225 15.5774
Au 15.3696 30.6547 12.0469
Pd 21.9172 21.923 18.1335
Au 20.5779 6.35257 14.3058
Pd 24.5911 24.2234 21.3263
Au 14.8314 33.4496 25.3223
Au 11.5402 26.3581 30.3076
Au 27.1511 19.3306 11.1657
Au 14.138 9.28666 9.31594
Au 18.36 8.35364 10.0412
Au 10.4135 20.3892 10.0323
Au 25.6602 23.6636 30.6596
Au 17.1643 19.078 26.6978
Au 28.9196 25.3328 23.0097
Au 18.1342 17.504 13.8229
Au 19.6087 31.7457 14.5776
Au 14.9063 25.5673 19.5395
Au 12.6828 11.371 22.2984
Au 28.0657 29.6554 24.1142
Au 10.3121 16.381 30.0243
Au 27.5036 31.2897 19.8463
Pd 20.365 14.1409 25.1303
Au 30.3705 16.3453 18.9106
Au 16.7423 13.772 32.9552
Pd 17.9006 33.0713 19.9171
Au 13.1209 13.7206 9.00908
Au 34.6166 22.2243 19.7784
Au 20.5492 33.5591 20.3972
Au 29.0805 9.28721 22.2412
Pd 16.6546 7.66337 22.6183
Au 22.4878 15.0507 11.9525
Au 9.42743 23.9719 24.3511
Pd 19.827 13.4258 8.1308
Au 13.9086 31.5835 20.7983
Au 18.6501 22.907 17.4623
Au 31.8722 20.6087 22.07
Pd 22.8216 12.1893 11.2837
Pd 24.7687 22.9304 18.6179
Au 28.7724 29.4356 18.114
Au 10.5987 18.0314 20.1501
Au 30.6555 16.2574 26.5755
Au 12.7938 22.7618 28.035
Au 17.03 16.8375 28.4053
Au 8.71725 24.1544 27.1142
Pd 14.884 23.4868 23.5244
Pd 13.3507 27.6072 20.9527
Pd 23.5861 28.0845 8.68556
Au 18.0822 33.8228 15.6229
