923
Atoms. Timestep: 20790
Au 8.71293 10.4835 18.8761
Au 22.9595 27.5199 16.7109
Au 8.78016 20.5809 20.2363
Au 14.4822 19.4339 13.2435
Au 13.2131 12.3178 22.3888
Au 27.2778 14.0031 13.5193
Au 11.8494 27.8063 24.9213
Au 30.8202 30.3985 20.6131
Au 11.0223 9.86645 17.4495
Au 22.663 17.0166 27.1824
Au 31.0173 22.912 16.645
Au 17.0181 16.5379 17.2214
Au 11.9499 29.8617 19.4976
Pd 10.2623 18.4895 18.8579
Au 23.1025 19.791 7.98199
Au 33.8404 25.3286 24.8251
Pd 8.43502 17.0355 20.0882
Au 20.5513 24.8637 29.6425
Au 9.67996 23.1165 19.1959
Pd 14.5036 13.523 24.566
Au 11.2737 24.5199 20.9689
Au 25.1598 7.17006 14.5326
Pd 24.3659 24.9867 15.2539
Au 19.581 26.2106 27.3379
Au 29.8937 27.4394 23.0608
Au 21.1011 32.4284 18.5407
Au 18.2021 7.63715 20.7577
Au 16.5636 21.7319 16.8231
Au 29.194 14.1284 21.0997
Au 30.1627 29.1833 25.2755
Au 22.4077 22.7602 11.3867
Au 12.7904 20.513 6.02251
Au 20.3252 32.1371 25.2935
Au 9.39513 21.9442 9.39903
Au 21.5389 4.4393 17.716
Au 22.0019 14.0318 28.0806
Au 26.4359 27.1441 21.5611
Pd 10.5437 21.9537 21.9226
Au 26.8209 26.4896 31.231
Pd 27.8239 19.4693 18.9667
Au 11.6881 12.1904 15.7968
Au 32.2419 23.1368 25.2044
Au 28.589 23.0731 21.1645
Au 9.16057 9.53114 24.2562
Au 13.9833 6.60834 13.8064
Au 18.824 23.2669 33.0723
Au 15.7487 12.5396 31.2665
Au 12.4941 8.65512 13.0583
Au 25.0156 15.9227 33.2772
Au 19.3366 21.6446 28.5061
Au 16.8656 6.31409 18.477
Au 22.3909 14.3915 12.7093
Au 8.66958 12.6153 20.4481
Au 15.4495 7.21738 23.6589
Au 23.6868 31.8714 19.0955
Au 3.96452 23.36 24.6366
Au 26.4738 30.7655 27.9395
Au 27.5908 23.7551 12.4318
Au 33.6107 16.2226 19.7413
Au 17.9541 13.355 16.9363
Au 20.3635 14.0582 32.5557
Au 16.1194 32.0918 20.3768
Pd 23.9838 26.4488 11.3876
Au 9.97488 21.8592 29.9851
Au 18.9799 6.77673 13.6146
Pd 22.2823 10.6241 8.86503
Au 22.8074 13.3604 16.9859
Au 13.2774 29.3886 13.2023
Au 33.3704 20.4558 14.3501
Au 13.6429 17.114 10.277
Au 17.8658 11.8654 9.10327
Pd 27.681 16.0333 24.7756
Pd 25.9084 23.9276 31.8183
Pd 25.3647 17.3165 23.2736
Au 17.1368 16.9704 7.13288
Pd 16.0788 14.9568 26.3457
Pd 14.6757 27.1061 12.9295
Pd 20.4957 24.4899 8.89684
Au 27.0021 21.5802 26.0861
Pd 28.9544 26.1105 13.4863
Au 8.9747 11.2297 16.3033
Pd 14.4911 9.25433 11.4834
Pd 20.6988 16.4237 13.9208
Au 27.1506 11.7162 16.8177
Au 25.3301 15.509 20.0784
Au 18.8693 22.4995 15.5254
Au 13.3864 29.9883 15.9252
Au 15.9702 15.1335 31.3304
Au 4.01263 21.6629 22.4867
Au 17.1612 20.613 24.2227
Au 20.0677 17.3585 26.1085
Au 27.5927 21.9371 30.8977
Pd 15.9283 28.2662 29.0176
Au 15.5357 23.0481 20.2094
Au 26.8181 21.8102 10.6969
Pd 24.8315 26.7561 8.87035
Au 28.9648 30.5626 18.5772
Au 6.9763 26.9199 18.5789
Au 18.2616 17.831 13.958
Au 13.0066 17.9955 29.5447
Au 18.2885 15.6997 24.9597
Pd 21.1842 16.0551 10.9846
Au 22.7293 20.0944 10.6675
Pd 12.6799 26.0849 22.8389
Au 21.2972 24.4044 32.6818
Au 27.6269 28.9288 23.6362
Au 27.8704 13.4741 23.7911
Au 21.3494 12.1732 21.7306
Au 32.0172 18.4838 13.0504
Au 19.699 8.65568 15.5355
Pd 17.8191 23.3229 18.94
Au 9.91285 24.5653 29.4987
Au 24.1594 11.0008 16.8789
Au 25.1201 29.979 24.0427
Au 23.4297 5.55205 16.1014
Au 22.9309 15.381 15.141
Pd 22.5138 11.7126 19.267
Au 17.6569 29.9788 30.2679
Au 29.4601 23.3418 14.3194
Au 14.4591 19.5994 16.3734
Au 14.2534 28.1418 19.8021
Au 25.2594 14.5485 23.5927
Au 15.5777 14.3665 17.991
Au 9.38727 14.3446 12.4508
Au 23.2269 17.4358 9.84818
Au 25.7684 13.2941 8.05859
Au 21.8783 9.59596 26.5249
Au 13.1247 10.1538 27.5688
Au 17.388 32.1241 17.854
Pd 15.4022 23.0892 25.1815
Au 24.0151 22.0629 6.88642
Au 14.1331 26.6475 8.52573
Au 17.06 22.4268 7.38573
Pd 10.8742 19.2966 21.4601
Au 13.2283 27.2613 15.3168
Au 25.5028 19.7364 30.49
Au 6.09577 23.5031 23.0795
Au 12.9082 23.4354 23.5872
Au 18.6825 16.802 11.3896
Au 14.8522 12.5185 27.1699
Au 24.945 15.5829 13.0752
Au 22.2741 21.8138 18.4783
Pd 18.2401 25.7701 10.2694
Pd 21.3647 9.58546 17.7872
Au 15.8489 11.034 24.9267
Pd 17.5858 12.4203 26.7968
Au 24.4607 12.9717 28.5785
Au 10.2911 7.8062 22.4575
Pd 10.4282 23.4037 16.5793
Au 26.9731 30.3929 11.8764
Au 33.8876 22.3713 16.1643
Au 25.7963 16.8176 10.5766
Pd 11.6894 16.4052 25.1482
Au 6.35061 23.6679 13.8894
Au 27.3878 9.17238 13.8572
Au 8.0995 15.9629 17.1851
Au 27.0949 26.4657 27.9095
Au 7.39228 20.0701 15.7649
Au 23.0746 24.8031 17.7073
Au 25.5806 21.3034 32.7225
Au 22.0167 17.3119 7.41597
Au 18.2896 17.8587 34.4668
Au 19.4132 5.55069 18.9317
Au 12.4785 16.7411 6.47396
Au 19.849 22.9436 6.82836
Au 14.2886 9.74313 23.0415
Au 28.966 20.0988 16.3424
Au 23.1128 20.9638 31.3903
Pd 29.6011 20.4004 26.7826
Au 16.6809 15.8595 9.70049
Au 14.5948 13.5925 13.2527
Au 7.09582 14.7597 19.7048
Au 23.498 19.5666 17.2324
Pd 21.3449 26.3569 10.5226
Au 11.509 10.1612 23.1329
Au 22.9631 17.4616 34.317
Pd 7.21528 18.8807 24.7067
Au 30.9207 25.0369 29.3607
Au 24.8079 21.155 12.2801
Pd 24.8214 20.9764 27.6051
Au 15.6955 31.3542 15.9337
Au 14.5895 18.4631 6.27675
Au 4.17451 25.378 22.8444
Pd 5.86135 24.5908 16.5547
Au 11.8859 25.9076 28.1524
Pd 13.9556 19.9238 10.5102
Au 12.4369 18.0955 23.28
Pd 13.0808 22.4484 21.0897
Au 19.8278 13.4318 23.8295
Au 24.161 9.68369 14.2012
Au 25.9113 24.1558 17.5258
Pd 24.9207 12.8676 12.4188
Pd 20.5148 16.3242 34.1127
Pd 23.2937 12.4214 14.4338
Pd 24.826 15.6216 28.3872
Au 16.3772 7.41727 12.1566
Au 27.2733 22.5853 23.4954
Pd 20.444 28.7525 16.9192
Pd 13.9191 25.2553 20.5157
Au 27.2265 25.111 15.2866
Au 15.7382 17.6411 14.8199
Au 10.2914 19.2216 29.2729
Au 10.2248 27.2033 22.5503
Au 25.9944 22.7793 14.6684
Au 12.6128 18.7701 8.23046
Pd 19.5372 29.2535 14.3848
Au 15.8862 24.6031 8.78812
Au 20.7449 31.8056 13.7912
Au 12.5964 5.75592 17.3771
Au 33.0621 23.0807 28.9982
Au 31.5447 27.4317 16.3493
Au 20.4119 26.0954 17.1787
Au 27.1787 8.72224 23.9496
Pd 17.2439 12.9321 19.7407
Pd 27.1374 24.5184 25.4426
Au 14.1034 24.4704 13.4177
Au 13.3601 14.9655 26.8247
Au 14.4913 23.1739 30.3538
Au 19.6426 30.1138 11.9197
Au 32.2269 27.4892 25.2372
Au 34.2293 22.7232 20.8251
Au 28.8294 23.5103 9.8819
Au 14.3232 16.2444 24.3928
Au 10.4229 14.719 26.8835
Au 18.1156 30.275 21.3723
Pd 12.4876 30.2613 25.8162
Au 19.9336 22.0179 20.0348
Au 26.6758 11.2528 9.62966
Au 28.6823 12.453 26.1889
Au 15.671 21.5989 12.1647
Au 19.0848 11.3462 14.9078
Au 31.3025 25.6673 18.6329
Au 15.2735 29.7728 21.6532
Au 11.1183 10.913 12.2831
Au 18.1864 22.5583 12.6003
Au 18.0234 28.5738 10.2229
Au 30.1685 29.8181 16.2987
Pd 25.4013 18.5237 12.7704
Au 16.9862 27.714 31.4956
Au 19.1616 14.0959 10.0905
Au 11.7916 13.6993 20.333
Au 22.27 21.5728 28.8744
Au 11.6921 6.25502 19.9009
Au 8.22686 17.6054 9.51257
Au 15.9402 11.9198 22.1075
Au 19.9032 8.42587 25.0378
Au 14.6246 25.8958 24.8204
Au 27.0968 15.1371 29.7664
Pd 20.7224 31.1278 21.0676
Au 4.48922 22.8373 18.1107
Au 24.7546 10.5145 27.5988
Pd 23.1914 16.2005 21.7858
Au 7.79202 18.6197 17.9393
Pd 28.6277 16.7646 10.262
Au 10.5075 12.6272 22.5944
Au 20.551 18.6431 12.1923
Pd 19.9318 23.8698 22.1212
Au 21.3677 19.2786 24.6488
Au 10.8124 30.1038 23.7346
Au 28.5629 26.9624 25.5361
Au 19.7996 28.2195 20.0964
Au 24.4793 15.6014 17.4793
Au 13.5661 25.1802 10.8625
Au 13.7035 19.7843 21.0115
Pd 18.2665 23.9925 26.4247
Au 15.2786 11.2248 9.66769
Au 20.7962 6.76434 22.6712
Au 18.5241 15.404 15.2336
Au 15.5883 25.9713 15.5762
Au 14.4138 22.0104 14.7446
Au 21.7862 8.39306 10.3714
Au 31.8169 29.2497 22.9323
Au 11.9826 26.7885 12.9289
Au 16.0281 9.99312 27.4589
Pd 18.2282 15.6622 32.7991
Au 20.8777 23.6076 27.1817
Pd 28.0871 22.7011 16.5784
Au 16.1323 19.819 32.6674
Au 24.1136 15.418 7.83022
Au 22.2178 29.1993 30.9769
Au 16.1915 28.7795 26.2823
Au 16.8602 20.5253 14.3646
Pd 24.01 25.6221 20.9124
Pd 27.6741 17.8716 29.9527
Au 20.8124 16.825 19.5911
Pd 31.3406 23.0359 20.366
Au 25.3638 16.7617 25.8812
Pd 18.2488 10.7135 17.6014
Au 19.9395 10.3907 19.9002
Au 32.7529 24.9576 16.2075
Au 20.1453 21.2809 10.9736
Au 32.4372 21.0653 22.2577
Au 19.7451 9.24974 22.422
Pd 27.1757 18.8746 25.9436
Au 18.2178 13.4137 31.1077
Pd 21.7502 22.0574 8.74762
Au 12.624 28.9113 22.1062
Pd 21.5115 18.4406 21.8805
Pd 16.4163 25.0468 31.6175
Au 29.4594 20.1381 30.3867
Au 14.1843 16.6841 17.0645
Au 20.0054 10.4554 10.2562
Pd 30.8692 16.1788 17.1989
Au 27.1541 10.1912 26.2116
Pd 22.0236 29.6325 19.23
Pd 22.113 29.5597 14.467
Au 21.9283 28.1873 12.2782
Au 18.252 19.0419 29.2797
Au 24.4043 17.6135 15.2783
Au 28.0382 24.5017 29.9212
Pd 24.4514 22.171 9.5103
Au 23.1176 18.9462 29.101
Au 7.25543 27.5668 25.7298
Au 22.5338 8.36309 24.0215
Au 15.0845 31.1809 25.6427
Au 9.79558 19.377 24.1536
Au 22.2271 30.7872 11.7006
Pd 25.0233 12.8789 18.7419
Pd 19.7219 12.3001 29.0122
Pd 25.2407 19.4581 10.0517
Pd 18.642 11.7797 21.9365
Au 20.2224 30.3351 29.7033
Au 32.0146 15.904 14.4549
Au 23.9104 14.5192 26.0291
Au 31.3427 27.6824 20.6213
Pd 31.5845 20.5532 28.8149
Pd 27.3913 20.4281 21.5431
Pd 10.052 16.9507 23.0135
Au 19.6296 20.0733 14.5117
Pd 14.4677 20.3447 30.3027
Au 20.2044 21.2063 22.9743
Au 26.217 31.4102 14.2171
Au 22.2268 25.1252 12.978
Au 31.9347 14.0928 21.3212
Au 30.3112 19.0216 10.916
Au 30.6884 25.304 24.6594
Au 22.3115 13.1929 30.6715
Au 12.3799 15.1907 22.5943
Pd 14.2444 17.2159 21.5051
Pd 26.9399 14.5245 17.8698
Au 4.73408 25.4639 18.7959
Pd 25.0009 26.5486 18.6397
Au 12.5646 21.781 16.6811
Au 14.3742 12.7536 15.9751
Au 18.9595 32.3662 22.9166
Au 5.81853 16.878 18.5466
Au 8.46603 19.8804 11.0166
Au 22.9503 16.937 24.4175
Au 26.9686 18.6539 15.0295
Au 13.9045 27.3811 26.9897
Au 18.1633 24.9444 7.46995
Au 35.0668 21.5357 18.6293
Au 31.45 13.7748 16.0808
Au 16.2832 17.8427 25.5303
Pd 12.9476 8.35554 18.5001
Au 16.3299 22.4552 32.3125
Pd 13.7443 18.5951 32.2162
Pd 12.5277 14.205 17.6361
Au 30.4806 13.0589 23.3547
Au 27.2932 15.8241 22.0467
Pd 7.76577 22.7608 16.2395
Pd 14.0979 16.2953 12.9278
Pd 13.6516 15.6732 19.5204
Au 27.8889 18.2502 23.2743
Au 24.7957 32.0017 16.5622
Au 34.8661 20.2813 21.6581
Au 9.10678 27.641 16.3898
Au 10.8863 29.1576 12.0883
Au 12.6174 20.2489 28.2494
Au 17.2691 11.3708 29.3623
Au 5.05566 19.4428 17.3576
Pd 5.56895 19.4434 22.5542
Au 17.0632 8.50254 16.1254
Au 25.5787 32.6075 21.0061
Au 27.6437 19.1925 11.3157
Pd 10.0864 21.9197 12.284
Au 5.95356 23.0948 26.4896
Au 21.0142 7.73021 19.9977
Pd 13.3775 11.0403 13.9683
Au 15.1733 26.9773 22.2998
Pd 14.0771 13.7979 29.4933
Au 25.1166 17.0398 30.7245
Pd 11.3975 10.9069 20.3711
Au 23.7758 7.85376 12.1646
Au 28.5676 27.7574 15.7345
Au 15.947 17.159 33.1286
Au 13.4087 11.8974 11.3775
Pd 14.4538 13.1098 20.0284
Au 15.14 21.5734 22.6826
Au 27.8171 12.2904 19.3306
Pd 14.7187 20.9187 7.7489
Pd 20.8039 28.9053 9.89816
Au 32.3312 18.5671 20.7858
Pd 19.9431 13.0733 19.5072
Au 18.4584 28.7964 27.9669
Au 27.6155 19.451 32.1959
Pd 29.2223 18.038 21.0236
Au 12.6191 22.3498 26.0702
Au 13.1786 12.814 8.80166
Au 25.1467 25.2899 29.5465
Au 22.3795 9.68365 21.611
Au 25.177 21.9221 21.8025
Au 21.1759 6.95418 17.1421
Au 15.6845 8.79256 18.4221
Au 29.6772 17.8879 25.5251
Au 19.2387 19.6368 21.0253
Au 23.3347 5.47083 13.4643
Au 29.9523 14.7487 25.4646
Au 19.3244 30.4421 18.7211
Au 30.058 20.564 21.1752
Pd 26.3363 23.5828 27.8184
Au 29.6329 14.1915 18.4133
Au 22.3501 21.0482 21.0436
Au 23.5645 17.7674 19.5959
Au 9.87074 19.2166 13.2023
Au 19.6388 21.5243 25.6668
Au 23.4544 30.8331 21.6291
Pd 14.3462 8.79745 25.6111
Au 32.8418 17.9853 17.8439
Au 24.2209 30.2142 29.4452
Au 21.255 19.3457 18.9766
Au 27.2664 16.7086 32.2528
Au 23.0243 23.8266 30.5489
Au 18.1432 27.1867 15.2597
Au 25.638 6.652 17.2935
Au 15.7251 13.5763 8.41363
Pd 30.6958 25.1502 21.771
Au 15.6855 19.1766 28.0377
Pd 34.7356 18.9377 19.3729
Pd 28.9201 20.5055 24.0665
Au 29.3074 22.9067 25.4836
Au 27.5372 16.6425 12.7256
Pd 20.9521 19.5599 27.4965
Au 16.5542 23.6424 14.4942
Pd 9.11079 10.2217 21.6711
Au 19.4445 27.1549 12.3289
Au 13.4809 31.2199 23.451
Au 23.215 21.072 23.6878
Pd 21.6241 24.2354 15.5165
Pd 11.2651 20.2114 10.7
Pd 26.1588 10.0558 18.7179
Pd 21.6837 28.7247 21.9226
Au 20.9507 5.30677 14.9173
Au 14.3654 30.7745 18.3761
Au 15.0965 23.7819 17.4601
Au 14.4064 22.5933 9.88635
Au 18.2531 18.2854 31.9165
Au 11.0493 28.8672 14.8161
Au 21.8477 31.5142 27.8556
Au 16.5592 13.3929 11.0973
Au 22.0806 32.9987 15.9439
Au 26.0533 26.7627 24.3292
Pd 23.4314 28.6772 10.065
Pd 26.3456 28.6656 26.2499
Au 14.3709 6.15365 19.3355
Au 20.989 11.9669 12.9209
Pd 32.9049 23.86 22.7659
Au 11.5797 25.8767 9.11089
Au 14.9152 25.812 29.424
Au 24.9327 8.81188 22.467
Au 21.5975 25.9868 22.1105
Au 20.6532 18.9488 33.3884
Au 7.55826 25.8946 14.8903
Pd 10.1278 24.0204 26.8436
Au 11.4196 9.19684 25.6957
Au 33.341 21.1208 26.8689
Au 11.7098 27.1472 20.1989
Au 26.6112 15.9857 15.4729
Pd 20.2327 14.7272 29.9769
Au 27.4834 18.447 8.6326
Pd 19.7627 29.8189 23.5328
Au 28.4608 17.4433 17.0395
Pd 32.5978 20.8133 19.4155
Au 23.2212 20.1507 33.925
Au 24.7835 10.8349 7.71259
Au 17.6664 21.9141 21.6053
Au 25.523 18.2366 28.1096
Pd 13.0029 21.9931 12.1427
Au 16.643 20.8946 9.68392
Au 24.4622 29.564 12.4832
Au 24.4041 32.6521 23.3995
Au 9.21443 27.4682 13.4466
Au 26.819 28.7134 29.6576
Au 10.23 11.7355 25.3961
Au 32.7208 26.6753 22.7696
Au 12.1011 12.6685 27.5373
Pd 30.9702 18.3026 15.5918
Au 23.5883 8.30386 16.6845
Au 11.513 19.3459 16.6457
Pd 11.3062 16.6016 16.9915
Au 7.2855 18.3853 13.415
Au 26.4763 14.0637 10.5635
Au 13.3005 24.0191 7.93708
Pd 30.8328 18.6059 23.1221
Pd 7.97328 25.453 12.2262
Au 15.0355 16.2174 28.6809
Au 7.98813 21.2491 23.1999
Au 15.4371 18.4345 8.78656
Au 13.4663 31.5428 20.8319
Au 17.2076 25.8171 24.0975
Au 27.5612 20.9194 13.658
Au 32.3889 25.2084 27.1052
Au 20.3563 12.2461 26.4091
Au 33.138 23.4801 18.4472
Au 12.9997 11.5857 18.2701
Au 25.703 10.1025 11.9179
Pd 18.5558 15.2862 19.0763
Au 15.3242 28.2317 17.3004
Au 9.99112 15.095 18.8027
Pd 11.738 15.5573 11.6291
Au 6.73096 21.3011 18.3063
Au 17.9708 14.4659 21.8271
Pd 10.7494 16.2851 14.0474
Au 5.28083 21.9094 15.7259
Au 18.3261 19.3134 26.5529
Pd 11.1113 17.3515 27.551
Au 26.666 28.5199 13.8333
Au 30.4314 24.2059 11.9683
Au 22.9505 32.6201 25.6276
Pd 20.2903 17.1893 28.7893
Pd 24.1222 22.3731 16.6901
Au 24.1554 28.4097 20.4291
Au 13.0576 11.297 25.1606
Au 21.3253 27.58 24.4806
Au 14.3825 21.0948 18.6932
Pd 20.4636 16.859 31.5321
Au 23.3337 22.725 14.1022
Au 11.6257 23.3071 10.2502
Au 23.9451 25.6802 32.2843
Au 22.5118 14.761 19.2501
Pd 19.9161 25.3006 24.634
Au 19.0644 25.9076 31.908
Au 15.8469 11.1844 12.6633
Pd 24.5532 20.2928 14.8144
Pd 17.5642 16.8873 27.6438
Pd 17.483 24.8398 21.4253
Au 32.0084 20.4368 16.8265
Au 30.3932 22.717 23.0812
Au 19.0784 7.84044 11.1153
Au 16.6005 26.1705 26.8994
Pd 15.6922 15.0203 15.3402
Pd 22.963 17.4511 12.6928
Au 9.62102 29.0493 25.9771
Au 28.655 13.8649 15.8872
Au 28.7162 28.952 21.0333
Au 15.1916 29.3245 11.1377
Au 10.6458 23.714 7.71722
Pd 17.0671 19.7256 7.01342
Au 18.7801 18.569 23.698
Pd 20.0413 24.2514 11.5646
Au 29.7932 21.4348 18.6313
Au 26.2023 27.9665 10.8878
Au 6.17557 25.7367 21.0616
Au 14.5544 11.1328 29.481
Au 22.4192 30.6327 16.8301
Au 27.9696 16.7105 27.5006
Au 28.7154 20.7565 9.17793
Pd 6.91113 23.865 19.1827
Au 6.0485 16.7379 21.3269
Au 21.4565 23.1794 24.4845
Pd 16.5906 18.9956 21.3267
Pd 10.5867 24.7125 12.2141
Au 19.4478 28.7929 31.9737
Pd 25.1123 22.3259 29.8641
Au 18.4802 11.7125 12.0309
Au 15.4227 8.07689 21.0402
Au 12.5432 20.7667 23.4744
Au 18.3836 18.173 18.9455
Au 26.1771 11.4688 14.3387
Au 28.7404 9.46644 16.3485
Pd 24.2471 12.1294 10.0153
Au 17.8686 24.873 16.7521
Au 13.5984 16.086 31.2226
Au 29.8588 25.3423 16.2198
Au 28.0597 16.3247 19.4281
Au 12.6115 8.46356 21.1929
Au 22.415 30.2601 24.2631
Au 28.8967 11.4308 21.7016
Au 5.84107 27.5384 23.2483
Pd 15.5571 18.4706 18.8061
Au 14.141 24.4982 27.1913
Au 5.58276 21.1674 24.6207
Au 23.8245 11.62 23.3355
Au 23.87 27.2851 14.0233
Au 31.547 20.5549 24.8723
Au 7.88701 25.9089 23.1992
Pd 17.091 25.9695 13.0398
Au 23.5183 31.8251 14.0098
Au 23.05 11.9899 26.0305
Au 7.43074 21.2064 13.3816
Au 26.7109 14.4164 26.7788
Au 34.2213 21.6107 24.211
Au 16.2347 25.7169 19.0053
Au 31.0471 22.7909 27.522
Au 17.1839 8.58178 25.4533
Au 25.3259 13.6205 15.7346
Au 33.6485 17.8659 15.2102
Au 18.8642 8.22085 18.2225
Pd 15.8567 17.9637 30.5306
Pd 22.4891 21.4492 26.2472
Au 12.0098 15.4005 29.0929
Au 21.2537 6.49546 12.2191
Au 28.9426 11.4909 14.5044
Pd 10.8692 18.7922 6.08798
Au 20.5382 29.6315 26.2774
Au 26.2053 26.0629 12.8895
Au 12.6207 7.62252 23.8546
Pd 28.6178 22.4013 28.3631
Pd 12.9204 18.3809 18.8235
Au 6.38001 21.6976 21.0323
Au 8.10517 23.7245 24.9535
Au 20.4296 25.6624 6.37226
Pd 26.3747 31.2877 18.8244
Pd 21.7289 24.1305 19.966
Au 22.2079 11.3113 28.5901
Au 30.4218 18.7253 18.6253
Au 21.2913 10.8363 24.148
Au 7.66611 28.0301 21.108
Au 7.79109 22.9503 11.4475
Pd 18.1077 27.479 18.0116
Au 24.6748 27.7753 28.2959
Pd 21.0766 26.9589 14.6871
Au 20.7178 22.4106 30.9022
Au 29.7634 28.0207 18.3761
Pd 26.976 28.5478 18.9902
Au 20.7802 18.7608 9.40551
Au 28.6347 28.9823 27.6514
Au 21.7182 32.6054 23.0433
Au 24.6896 9.66081 25.088
Pd 12.9872 24.5557 15.9645
Au 34.7924 17.6538 21.7146
Pd 16.1668 24.1241 11.4375
Au 25.4452 24.527 22.9422
Pd 17.7814 26.1795 29.4147
Pd 14.3032 10.4375 20.325
Pd 10.011 14.2963 15.9028
Au 30.6398 27.2275 27.4008
Au 23.5422 22.9863 33.1533
Au 7.58426 25.227 27.2039
Pd 19.2284 20.8775 8.39079
Au 10.5881 25.7683 15.1045
Au 18.7553 32.7229 20.1497
Pd 12.1135 25.1696 25.5157
Pd 14.0633 29.8921 27.91
Au 7.98343 13.2758 17.6699
Au 16.3942 5.65584 21.4136
Pd 17.2769 28.7228 12.8104
Au 19.0684 14.6522 27.5312
Au 26.2507 20.6432 16.9226
Au 29.0669 14.2846 28.1282
Au 21.5411 27.0133 32.2595
Pd 9.49253 28.2047 18.9758
Au 14.9705 18.9663 23.47
Pd 11.6246 20.9283 19.308
Au 15.3799 31.0038 13.2731
Au 5.74625 25.4323 25.0775
Au 11.9219 20.2626 31.0696
Pd 28.1911 25.2401 22.9925
Au 4.39294 23.6116 20.7193
Au 28.9629 14.3322 11.3469
Au 19.3964 14.3618 12.7125
Au 21.7513 10.4445 15.2533
Au 17.9593 23.2183 23.9103
Au 29.1436 24.0671 18.7248
Au 25.7125 32.1817 25.7103
Pd 14.6282 21.9217 27.9458
Au 13.9519 9.87443 16.3963
Au 25.8166 17.9443 17.8314
Au 29.4423 21.553 11.7906
Au 30.7544 12.1227 19.8312
Au 18.6807 27.7944 25.3532
Pd 24.1015 19.1907 21.9419
Au 23.7002 27.9327 25.6765
Pd 9.21655 24.6114 9.87413
Pd 8.97929 23.7052 14.068
Pd 18.1425 6.99234 23.3838
Pd 21.588 14.8853 8.59962
Au 20.3254 12.476 8.12725
Pd 21.6537 21.3354 15.8927
Au 28.735 28.402 12.0277
Au 16.6644 16.7278 22.9952
Pd 29.2776 18.7064 13.4488
Au 17.7267 29.6945 16.4213
Au 18.6492 6.07567 16.2951
Au 9.04757 19.0287 26.8886
Au 13.6659 6.05206 21.9201
Au 18.4668 20.5212 34.0716
Au 18.5937 20.9238 31.5198
Au 18.0281 19.8221 11.9341
Pd 17.2822 19.1358 16.6162
Pd 22.3088 20.3756 13.2341
Au 11.1305 13.1472 10.5642
Au 16.3286 16.1986 20.1163
Au 18.0482 18.5773 9.38758
Au 16.8474 27.1744 8.217
Au 12.867 17.7652 14.925
Au 32.2381 23.0885 14.0112
Pd 10.9106 17.6099 10.0483
Au 19.5375 18.5688 6.96043
Pd 18.8013 16.9983 21.3822
Au 21.6672 12.8876 10.4527
Au 17.8134 9.29138 13.4459
Au 19.3864 20.6552 17.5151
Au 29.9874 11.7253 17.1755
Au 16.5369 23.8432 28.4482
Au 25.8661 20.1513 23.9162
Au 16.5406 30.8933 27.9756
Au 25.0077 17.8702 7.74085
Pd 20.4714 15.0036 17.2755
Au 24.614 29.4179 17.9902
Au 9.51174 15.2253 9.84964
Au 6.28117 17.4582 15.8162
Pd 23.5685 23.6385 27.7637
Pd 10.3039 22.012 24.6859
Au 9.08228 16.9642 11.9622
Pd 21.0057 21.6224 33.3943
Au 21.5394 5.08372 20.4849
Au 27.6928 26.1846 17.8982
Au 8.3285 28.8275 23.604
Pd 19.7809 31.4934 16.2572
Au 24.0282 30.3576 26.738
Pd 23.8076 14.7923 10.4347
Au 8.14923 11.9564 23.5393
Au 9.80152 19.4817 8.4369
Au 18.1682 14.2948 7.61189
Au 17.1762 9.63481 10.6943
Au 14.5616 20.3559 25.7082
Au 9.57813 26.3329 25.3567
Pd 22.2444 17.075 17.2807
Pd 25.2633 18.57 33.0805
Pd 7.48034 16.4266 23.4838
Au 24.7465 14.373 30.9753
Pd 24.7617 23.8903 12.1589
Au 18.2684 23.0982 9.73605
Au 29.9077 18.3761 28.4839
Au 23.8876 27.5887 22.9632
Pd 30.9054 16.2222 19.981
Au 17.8938 30.7921 25.3718
Pd 10.4428 12.4859 18.259
Au 19.1675 27.068 22.5604
Au 22.618 16.0955 29.8846
Pd 24.598 29.6006 15.3204
Au 30.6389 20.8682 14.3504
Au 12.915 27.8927 10.6477
Pd 15.2883 24.2547 22.7071
Au 19.0212 5.15219 21.5387
Pd 20.7079 22.513 13.5363
Au 33.4718 18.874 23.7376
Au 22.5134 14.099 23.5846
Au 26.9657 22.1148 19.1875
Pd 17.0359 9.44195 22.832
Au 10.2988 21.3447 27.3666
Au 28.6994 30.2742 14.0886
Au 10.0481 16.7988 7.64529
Au 9.4176 26.9799 27.9518
Au 22.1188 28.7288 28.2145
Au 14.5908 15.9672 7.85334
Pd 29.0356 27.0011 29.5938
Au 8.39932 23.5823 21.6191
Au 21.8696 18.5919 15.1054
Au 12.1479 23.11 28.7614
Au 31.5345 25.7344 13.9924
Au 22.066 26.8606 19.3375
Pd 9.09532 16.8237 25.5776
Au 23.2603 6.98112 21.4688
Au 23.6081 9.07422 19.2841
Au 16.3299 31.6562 23.2222
Au 23.0667 12.9006 7.68012
Pd 22.1674 7.70008 14.4984
Au 28.2879 26.0109 10.8587
Pd 6.25989 19.1025 20.0281
Au 26.5076 11.1356 23.173
Au 18.2919 23.5546 30.4176
Pd 26.1207 9.14097 16.198
Au 9.46297 20.9038 17.6042
Au 30.4645 22.6315 30.2824
Au 9.23141 14.4208 24.3099
Au 27.0453 31.8661 23.285
Au 18.9457 10.0491 27.2508
Au 34.6606 19.7744 16.7484
Pd 15.8337 26.8087 10.635
Au 23.1418 25.3144 24.4739
Pd 17.2476 30.9957 11.4004
Pd 22.2813 26.6782 8.10572
Pd 28.8109 26.3166 20.3895
Pd 7.92667 21.2321 25.9683
Au 26.9035 22.8158 8.13178
Pd 16.3874 11.0278 15.4147
Au 20.6154 9.22767 12.8345
Au 23.7644 13.4914 21.2375
Au 12.0579 15.2926 8.81151
Au 11.7921 28.2742 17.406
Au 4.20032 20.8063 19.8182
Au 10.2978 21.3514 6.62798
Pd 24.9174 25.5884 26.5511
Au 18.5872 10.886 24.6254
Au 29.3396 16.2247 14.7499
Pd 23.2092 24.5774 9.59737
Au 19.088 31.6036 27.6872
Pd 14.1327 14.5086 10.6419
Pd 18.0381 16.2054 30.1202
Au 11.4353 16.7664 20.5734
Au 8.43278 25.1319 17.3125
Au 22.9297 23.4705 22.2709
Au 13.6334 26.2001 17.973
Au 24.4145 9.24279 9.77729
Pd 17.1928 10.2017 20.1725
Au 27.1389 30.0182 16.4835
Au 32.3246 14.0922 18.6584
Au 14.7612 7.01009 16.516
Au 5.13786 19.5678 14.5173
Au 26.1546 29.9945 21.3546
Au 13.8501 21.4375 32.6693
Au 29.5861 30.7562 23.0756
Au 19.4664 16.4228 8.57807
Au 22.8675 18.2167 31.7964
Au 20.1324 27.5622 29.7891
Au 14.3277 28.7627 24.3282
Au 29.9526 15.9741 22.9872
Au 17.207 27.581 20.7158
Au 26.9707 12.177 28.2217
Au 25.7839 27.3257 16.2095
Au 28.9986 10.7182 24.2397
Au 31.9933 16.6798 24.9271
Pd 32.5445 16.4443 22.3541
Au 10.9087 25.7461 17.9943
Au 10.1932 8.48544 19.8377
Pd 13.736 17.7355 26.7398
Au 17.9031 31.3121 14.0861
Pd 11.8498 13.3977 13.2638
Au 20.2479 23.4412 17.6842
Au 12.5646 23.589 18.678
Pd 17.2662 13.1963 14.0878
Pd 16.5127 6.40013 14.5872
Au 10.3451 24.4546 23.489
Au 10.5009 7.25253 17.5351
Au 12.4928 25.3774 30.7115
Au 19.3992 25.5286 19.7123
Au 14.0538 24.2465 32.7067
Pd 22.7189 26.5115 29.8403
Au 24.8736 20.3225 19.4854
Pd 29.2145 24.9189 27.3118
Au 30.5977 28.3081 13.9857
Pd 12.1939 18.2206 12.3225
Au 24.9353 24.4826 7.53855
Au 26.1128 24.6808 10.0136
Pd 12.3504 7.86156 15.6473
Au 12.8798 15.0028 15.1241
Au 16.0137 17.9769 11.5498
Au 8.11993 22.801 28.2195
Au 17.0355 28.8095 23.4983
Au 22.3818 24.1089 6.97724
Au 9.52441 12.2588 14.0017
Au 34.4461 23.4779 26.676
Pd 24.3368 23.1626 19.5826
Au 19.3075 24.8867 14.1688
Pd 16.7609 21.3557 29.6433
Au 15.1245 14.6141 22.1283
Pd 13.2593 27.8908 29.6761
Au 11.8004 19.4001 25.8186
Au 30.2279 13.8528 13.6154
Au 24.7076 22.9421 25.2448
Au 7.05795 14.0843 22.3203
Au 30.8968 16.2127 27.4248
Au 21.134 14.938 25.7444
Au 16.7368 15.5901 12.8269
Au 32.0092 21.0402 12.0506
Au 15.7258 11.5217 18.0532
Pd 12.1733 21.4333 8.48867
Au 16.7022 29.7286 19.0822
Au 20.4997 12.0639 17.174
Au 22.9379 10.5343 11.7748
Au 22.6004 15.3892 32.5126
Pd 25.714 12.33 25.4977
Pd 20.7304 13.6728 14.9905
Au 22.2455 26.0479 27.1065
Au 8.10036 15.7987 14.4165
Pd 11.9511 22.9139 31.4704
Au 8.96523 25.8211 20.1562
Pd 19.5951 27.1155 8.41557
Au 9.97167 27.002 10.895
Au 32.0551 18.6931 26.7545
Au 27.6996 7.91522 18.307
Au 27.306 9.31043 21.1127
Au 11.5688 28.6209 27.7298
Au 29.1034 9.98235 19.1031
Au 20.5092 16.4277 23.4528
Au 14.4563 26.8503 31.8526
Au 27.3993 20.1282 28.508
Au 30.433 16.4418 12.2364
Au 20.7298 19.5087 30.4745
Au 27.7964 11.8442 12.0104
Au 28.0249 30.8043 25.6209
Au 24.8965 11.0115 20.8287
Au 9.27872 18.0157 15.6296
Au 33.1711 25.3093 20.4842
Pd 10.8308 9.89083 14.7489
Au 24.6214 28.0082 31.1113
Au 17.1369 13.3645 24.1901
Pd 33.4522 15.6353 16.7946
Au 9.94258 29.5609 21.2725
Au 28.2683 31.7267 20.864
Au 9.437 14.935 21.5276
Au 20.7252 14.7977 21.3809
Pd 15.1218 8.89511 14.1552
Au 25.9606 20.4433 7.68828
Au 19.6728 17.701 16.5303
Pd 26.4719 13.2673 21.3765
Au 12.1556 20.3907 14.1407
Au 8.09647 18.6945 22.1073
Au 25.6291 7.4713 19.9837
Pd 11.8639 13.7331 24.8046
Pd 15.6367 28.7953 14.7837
Au 26.806 15.7737 8.36417
Au 23.3431 6.28147 18.7962
Au 26.246 18.0686 20.7187
Au 17.0179 21.594 26.8197
Au 24.0022 19.1662 25.7469
Au 11.6981 23.1681 14.1526
Pd 17.1465 20.6701 19.2432
Pd 9.7768 21.2312 14.9861
Pd 16.7423 14.0076 28.8813
Au 26.5654 24.6999 20.2713
