923
Atoms. Timestep: 20764
Au 7.48801 24.9779 26.0713
Au 30.5222 21.3305 12.538
Au 23.6542 12.7781 25.2664
Au 8.89463 13.5538 11.5655
Au 23.3186 26.2854 19.7722
Au 14.9211 22.9001 20.8054
Au 33.0877 23.9532 15.9256
Au 11.7181 26.147 22.2061
Au 17.4866 25.0512 14.7395
Au 25.5686 14.296 23.5542
Au 19.722 20.7902 7.96745
Au 10.2243 25.0361 26.4954
Au 12.2057 15.5513 8.61794
Pd 21.5469 9.49278 15.5619
Au 18.6725 13.4174 20.772
Au 34.2636 18.1442 23.8142
Pd 10.003 28.2609 19.3608
Au 15.1604 10.3442 23.363
Au 19.5527 31.8009 16.4624
Pd 19.7146 16.5758 8.73611
Au 19.0014 21.8958 18.4094
Au 27.514 25.0081 10.4085
Pd 29.3812 25.1001 12.3474
Au 11.353 8.93609 21.032
Au 17.5727 15.9146 12.7698
Au 31.1871 16.5366 15.2409
Au 13.7287 10.3335 20.6982
Au 25.6496 29.4395 26.3182
Au 10.4798 26.8645 14.1705
Au 21.6462 31.4896 25.7777
Au 9.74043 24.3443 12.6447
Au 25.047 13.9512 20.8508
Au 7.10408 13.5293 15.9457
Au 12.0008 28.7995 23.6736
Au 29.5131 16.308 10.817
Au 7.70409 23.1906 9.39787
Au 31.139 13.1429 19.9527
Pd 9.38515 14.4967 16.903
Au 23.2556 23.3648 21.3612
Pd 6.8585 23.7086 23.7377
Au 13.2504 30.3001 12.8359
Au 9.56585 26.0712 28.9511
Au 13.7671 7.04988 20.1498
Au 13.9986 12.6054 22.5395
Au 31.7119 21.9458 17.5142
Au 20.0741 32.799 19.2202
Au 11.0486 19.4351 31.0089
Au 21.1134 25.1723 21.0682
Au 18.1936 25.0424 6.52636
Au 27.3711 12.9946 13.6663
Au 7.49158 27.0177 24.2881
Au 20.7366 12.9975 10.4111
Au 10.1419 10.0961 18.7694
Au 20.2579 28.2887 8.71463
Au 26.0167 15.7758 7.43693
Au 8.39188 12.406 23.4841
Au 31.5727 22.8609 28.1834
Au 9.24919 16.4701 26.7003
Au 12.0632 26.5999 19.3305
Au 17.8812 6.94996 22.3025
Au 18.3852 14.3904 9.83926
Au 33.9063 14.2517 21.0579
Pd 18.6467 11.4117 11.1818
Au 19.0316 26.0165 29.2653
Au 22.7931 18.4336 5.69082
Pd 17.5501 27.4046 13.33
Au 20.4537 21.0028 27.8093
Au 11.9768 21.935 18.1077
Au 34.6373 20.9643 23.8156
Au 14.1199 21.8888 7.21881
Au 21.52 15.7813 6.43973
Pd 12.9033 13.7294 13.8637
Pd 20.7928 9.48898 30.4755
Pd 19.0511 20.0296 30.0497
Au 23.5772 22.8922 10.3531
Pd 10.7489 22.0269 13.7413
Pd 18.125 18.0402 31.7493
Pd 24.4579 15.3552 9.82857
Au 22.8636 26.9122 30.9553
Pd 23.3159 25.9842 22.5655
Au 21.4515 6.75491 18.7793
Pd 13.5627 8.01489 22.5604
Pd 11.9402 20.0457 28.4562
Au 14.4515 17.2397 9.07413
Au 16.7932 23.1547 10.3912
Au 10.8947 16.8118 30.4193
Au 23.4281 18.1395 19.8192
Au 14.9836 25.9687 13.8714
Au 7.80642 18.7237 26.2163
Au 14.173 15.3949 15.7196
Au 16.9866 20.6013 31.5841
Au 16.5315 23.0237 18.3452
Pd 17.8754 25.5302 9.24755
Au 14.8049 20.132 21.5899
Au 19.4132 13.4411 15.9864
Pd 28.6352 24.5031 14.945
Au 13.4722 21.8115 13.5161
Au 14.5081 26.645 17.9086
Au 21.7864 20.5882 14.7599
Au 22.7537 16.2778 29.1723
Au 31.6621 24.4692 23.8833
Pd 13.1498 19.6411 8.60348
Au 11.995 28.8755 21.0653
Pd 22.2387 25.3365 10.2483
Au 23.0157 9.31276 13.1301
Au 31.2721 24.3985 19.195
Au 14.9325 32.3346 17.8801
Au 23.9076 7.65398 26.2832
Au 10.487 28.6653 29.1541
Au 28.3963 19.6926 30.7826
Pd 30.6619 27.141 19.2464
Au 16.3566 31.3604 25.3429
Au 7.94665 26.7703 15.4788
Au 7.81917 18.9574 21.2701
Au 14.7766 11.9932 27.7307
Au 32.8542 14.5888 16.4711
Pd 17.9013 26.7019 24.4253
Au 12.2297 14.409 17.5843
Au 29.9645 18.9862 11.2793
Au 24.4693 28.1427 21.443
Au 16.9679 20.6211 20.0881
Au 12.4426 8.67887 18.4604
Au 20.9769 17.9996 21.1457
Au 27.4253 11.1614 11.6255
Au 20.6539 22.6784 22.282
Au 13.1958 24.0505 8.85888
Au 25.5907 17.9314 9.36144
Au 27.0769 27.221 25.6229
Au 26.8102 27.248 11.6787
Pd 21.0845 24.8204 30.556
Au 16.9425 27.8114 27.1482
Au 22.2939 20.6319 20.9523
Au 20.1713 27.2391 31.3292
Pd 14.4829 29.6309 22.4147
Au 16.9785 13.6511 27.0247
Au 12.3968 21.0592 20.6137
Au 13.8158 16.6691 23.5876
Au 20.2569 15.9572 11.2995
Au 9.59251 23.3139 18.8861
Au 6.8483 14.021 13.3035
Au 35.0945 24.8321 21.0659
Au 6.1482 15.9399 15.0822
Pd 30.4181 29.5099 23.6353
Pd 12.5268 23.243 15.6284
Au 5.10951 19.3482 21.2217
Pd 11.7851 22.6293 6.22486
Au 10.7096 29.1963 12.6384
Au 28.948 9.00758 26.9582
Pd 13.0414 20.704 25.9065
Au 19.1628 10.6629 15.9461
Au 20.3556 15.262 22.3504
Au 4.12126 21.6457 20.3887
Pd 28.1105 13.0193 16.3803
Au 19.3585 16.0096 19.8454
Au 8.68097 23.4794 28.0879
Au 5.46597 23.7163 21.3165
Au 17.4118 19.7298 22.9654
Au 32.4333 17.7717 28.8458
Au 20.3002 22.8319 14.4261
Au 20.6623 17.8057 30.4242
Au 22.6676 14.5254 11.6876
Au 9.46819 22.1315 11.0856
Au 18.5139 9.4485 13.1046
Au 26.776 25.0736 13.1876
Au 18.764 28.6536 29.3816
Au 14.1716 9.80109 16.4693
Au 29.3974 11.6095 26.5367
Au 12.3999 31.6146 17.4166
Pd 17.7339 22.58 15.8594
Au 11.2226 25.0958 7.2572
Au 22.9072 14.1657 22.8745
Au 18.5826 18.4633 18.2724
Au 10.3801 26.7928 11.4723
Pd 30.0238 19.5427 24.3514
Au 15.8752 21.2108 12.1419
Au 22.2675 21.3919 6.98272
Pd 28.0288 29.8557 25.052
Au 24.9289 12.4713 31.9839
Au 26.3555 25.7093 18.4437
Pd 21.0806 13.658 29.7876
Au 29.2476 17.3106 13.3811
Au 7.20311 24.4706 19.3106
Au 13.0184 18.2028 20.9145
Pd 25.6065 19.2291 18.6584
Au 18.6851 7.52088 24.7791
Pd 8.033 25.4002 10.9576
Au 27.638 7.37944 21.9105
Pd 25.2928 23.284 23.0457
Au 31.194 10.2112 19.8037
Au 21.5038 11.9313 16.9416
Au 16.1094 23.7602 5.26096
Pd 19.5137 17.862 13.0293
Pd 29.4716 14.2069 22.0685
Pd 18.1101 22.8466 12.8458
Pd 16.9575 20.3846 17.3905
Au 10.2522 18.1525 19.939
Au 12.5493 29.1283 18.2424
Pd 19.6447 27.2106 26.6837
Pd 16.5859 22.9635 30.3138
Au 23.8757 27.8114 24.5268
Au 26.7278 12.8031 25.5955
Au 13.2561 12.8486 29.8853
Au 26.9531 22.1059 27.5752
Au 26.0725 19.6317 15.954
Au 26.4109 8.34693 26.8988
Pd 12.4208 10.3788 23.1674
Au 8.08383 22.4191 14.3563
Au 23.2558 6.6328 23.8688
Au 27.9198 9.91228 22.7429
Au 34.9624 18.2215 19.0977
Au 16.3848 25.5906 29.4164
Au 34.3179 21.709 16.6479
Au 22.1038 26.2496 26.0117
Pd 16.5796 27.7809 21.9282
Pd 22.2476 11.5385 23.1669
Au 17.4337 15.4979 33.192
Au 15.1903 11.5991 18.6349
Au 22.4431 14.1163 27.4148
Au 15.8267 22.1089 23.2213
Au 24.648 16.6311 31.0341
Au 27.8586 28.5702 16.0773
Au 11.6369 29.9848 15.1225
Au 9.02259 11.6913 16.863
Au 9.95534 15.7832 10.1697
Au 15.7293 9.40119 28.8147
Pd 17.0276 10.9756 20.445
Au 14.4245 26.894 28.0609
Au 12.1508 26.4312 29.7806
Au 16.2172 30.2387 20.3278
Au 14.5377 26.964 30.924
Au 11.1645 14.4187 29.1087
Au 26.5741 15.6719 26.368
Au 24.1219 11.0492 17.6279
Au 32.494 15.7577 26.5999
Au 11.1408 23.9274 29.3681
Au 5.94162 17.4924 19.4217
Au 29.4014 29.8465 14.4834
Pd 18.0414 14.4712 24.5774
Au 17.561 13.0033 32.0233
Au 12.7682 28.5788 10.5698
Au 32.5702 22.6154 25.6735
Au 26.8884 27.8643 28.2171
Au 17.4105 27.16 31.3595
Au 33.8374 23.5391 18.834
Au 18.8234 24.7216 22.7224
Au 15.1641 8.84188 18.8264
Au 19.1209 20.4239 13.4957
Au 28.2572 28.496 18.6938
Pd 25.7104 12.0886 15.615
Au 26.4744 29.8787 20.4815
Au 24.5494 25.283 11.7076
Pd 14.4195 28.234 20.1081
Au 27.0942 27.1835 20.8982
Pd 13.6717 17.7778 26.1151
Au 20.7418 21.424 34.1274
Au 30.3362 21.0532 26.6666
Pd 17.7566 29.9429 12.2067
Au 12.366 24.6925 13.2697
Au 29.1053 11.8058 18.5373
Au 11.859 14.3319 22.3475
Au 15.8975 19.4283 9.91753
Au 25.6839 19.444 32.017
Au 25.4848 8.41715 24.1352
Au 10.7116 18.0128 8.47467
Pd 18.528 22.0316 23.7773
Au 28.3077 18.2057 9.17449
Au 9.34655 11.8956 26.1323
Au 31.9791 18.9379 22.46
Au 9.87587 21.4457 29.5936
Au 20.6607 14.106 18.4657
Au 29.3461 22.9447 10.6526
Au 25.565 18.1697 6.40416
Au 12.487 25.8232 24.884
Au 9.99843 30.3179 17.3713
Pd 18.5216 22.5545 26.6561
Au 18.9129 15.4816 30.8824
Pd 8.53559 16.487 21.8434
Au 13.9942 24.2454 30.0646
Au 8.93273 20.0077 12.8199
Au 11.4044 13.38 10.2835
Au 24.2344 9.00814 28.5217
Au 27.2434 22.5877 8.99137
Pd 23.8969 30.5183 24.6123
Pd 16.6401 20.4058 14.692
Au 9.33312 18.1352 24.0351
Pd 25.1803 24.6725 9.11055
Au 20.2286 11.2905 28.5924
Pd 27.2018 18.0735 11.6544
Au 27.9769 18.1278 25.7029
Au 17.1492 20.9597 28.3619
Au 16.5503 16.08 19.7367
Au 12.9295 24.7127 27.3952
Au 24.4539 18.694 11.7687
Pd 31.6217 11.9738 24.9398
Au 15.3696 28.9443 13.7737
Pd 21.314 22.7554 19.5842
Au 13.1202 10.9557 14.1535
Pd 16.9809 23.8906 24.8899
Pd 34.6922 22.2579 21.4304
Au 19.6367 10.8291 21.3083
Au 20.362 25.5377 8.24237
Au 22.2416 22.7795 29.2201
Pd 31.4662 19.0122 13.6917
Au 29.3767 28.7568 21.1157
Pd 18.3594 8.62464 20.0995
Pd 11.675 19.4717 13.2471
Au 33.6382 13.1252 18.5817
Au 23.124 8.9936 22.7154
Au 10.136 27.3523 24.8784
Au 19.1581 22.9227 29.4057
Pd 26.9716 12.4603 22.1954
Au 30.6068 28.4331 16.6034
Au 25.5271 26.0408 29.6494
Au 23.7891 14.1675 7.27147
Au 20.0493 11.8612 31.513
Au 23.4617 18.8943 22.5488
Au 33.1591 26.2943 19.9297
Pd 9.50359 27.7059 22.1882
Pd 11.5161 16.4446 25.088
Pd 24.4384 13.7168 13.7042
Pd 19.186 11.6589 18.6327
Au 26.7883 20.1048 7.98405
Au 25.7193 9.46741 21.3512
Au 25.0708 22.22 25.6406
Au 8.624 18.3049 10.2855
Pd 17.7658 22.8917 21.1476
Pd 22.7475 11.8305 12.0027
Pd 24.342 26.0998 14.2906
Au 6.97133 22.9834 11.9867
Pd 11.5833 21.8794 8.83779
Au 12.2867 20.4708 15.7351
Au 27.8349 19.0851 22.923
Au 22.2406 30.1318 12.6636
Au 13.3269 26.764 8.14565
Au 25.1893 11.0347 13.0032
Au 23.106 21.5105 23.6051
Au 11.9424 23.8803 20.4043
Au 25.2707 20.6744 10.1784
Pd 23.9823 19.6221 7.92966
Pd 13.6521 16.6635 18.3964
Au 5.32258 22.9089 18.3558
Pd 19.5796 27.1587 18.3597
Au 27.3139 15.452 12.6552
Au 21.3816 27.6773 28.7892
Au 29.5778 15.7213 19.8916
Au 30.7306 15.6656 28.7002
Au 22.9043 24.2801 7.70231
Au 20.4908 19.8703 5.58157
Au 15.3213 29.9853 11.0657
Au 18.4397 29.3967 25.3656
Au 15.9154 28.6747 24.6324
Au 29.7182 21.8444 15.3693
Au 30.8798 30.9282 21.4221
Au 12.7822 25.9746 15.6383
Pd 18.6288 23.137 8.44133
Au 30.0259 17.5941 30.3613
Pd 16.8418 17.1432 24.2446
Pd 11.117 22.3552 27.1766
Au 15.8592 24.9276 32.1103
Au 16.1037 25.0658 22.6905
Pd 21.2345 17.1998 18.3092
Pd 22.5031 17.3764 10.4314
Pd 28.0935 14.6833 24.3125
Au 15.9175 31.4738 13.3851
Au 19.6055 24.1346 10.9364
Au 14.1288 25.641 20.7242
Au 8.33521 23.3644 21.4859
Au 16.7875 13.3459 11.9054
Au 19.9519 26.8471 10.9703
Au 13.5364 19.8725 11.33
Au 25.0194 9.37152 15.4751
Pd 9.59469 15.0178 23.8371
Au 30.9353 14.6196 24.4446
Au 20.7965 21.968 25.2361
Au 17.7986 29.9481 9.39665
Pd 29.6255 10.896 15.7063
Au 12.1722 17.4985 10.7074
Au 11.2701 12.6056 15.7116
Pd 9.1336 13.9146 21.2325
Au 15.9203 8.63775 21.4077
Pd 11.8353 12.0862 27.5786
Au 7.74053 16.0632 11.8406
Pd 21.8429 15.0578 9.07605
Au 11.0715 9.97961 25.6401
Au 13.3833 15.5705 30.4805
Au 26.0253 17.2082 24.0203
Au 22.8483 23.4374 26.6304
Pd 21.4798 26.381 15.5008
Au 31.7353 16.7131 12.3758
Au 21.662 25.0557 18.0587
Pd 23.6066 13.723 16.3049
Pd 12.8138 16.8089 13.3223
Au 6.24588 26.3112 17.5502
Pd 19.3362 17.6716 23.459
Au 13.1074 21.4365 23.3
Au 19.1152 14.5381 7.12319
Pd 21.3094 7.60077 25.5377
Au 5.89982 16.965 22.205
Au 23.4049 8.6915 20.0772
Au 24.579 30.6671 14.2606
Au 17.4484 9.70228 17.7753
Au 33.6942 18.0839 26.4967
Au 28.629 27.1957 13.8523
Au 24.6185 17.2908 27.5245
Au 32.2639 15.4603 19.183
Au 29.8693 22.4853 24.3251
Au 14.8123 16.1893 33.1811
Au 17.5117 30.4637 27.7908
Au 32.0282 28.3971 21.5078
Au 25.3768 23.9512 16.3635
Pd 16.8336 27.7111 19.0592
Au 19.7977 25.4219 13.4228
Au 29.274 20.7078 9.10444
Au 34.253 16.8415 21.4005
Au 21.7257 13.7609 14.205
Au 29.3236 7.26792 19.5307
Au 11.3641 9.99358 16.2019
Pd 17.2378 30.3029 22.9202
Au 30.8975 26.2269 14.8962
Au 22.8335 11.4292 27.7453
Au 33.445 26.2552 22.6393
Au 16.246 7.54983 16.7725
Au 19.4493 20.3662 16.193
Au 16.7959 12.161 16.5304
Au 20.4071 33.592 24.5669
Au 19.5218 20.596 20.8449
Pd 13.4859 24.0975 22.8792
Au 18.3032 20.2343 33.9077
Pd 14.9969 27.3625 11.5991
Pd 31.5762 16.047 21.919
Au 29.611 11.7755 13.0913
Au 21.2929 12.9726 7.5534
Pd 8.78817 15.5591 14.355
Au 26.1318 29.1103 23.3489
Pd 19.0117 8.73478 28.743
Au 29.2339 22.0779 29.3431
Au 17.8637 27.7363 7.78358
Au 7.30423 24.975 13.7079
Pd 13.8264 22.4928 4.59872
Pd 18.1362 18.1382 15.4061
Pd 15.457 18.8442 7.12118
Pd 17.0396 25.2571 11.9553
Au 20.8368 9.73464 11.4909
Au 13.9433 12.5704 16.3056
Au 26.1276 22.9351 11.421
Au 13.4 14.4504 27.5353
Au 19.9695 18.8005 10.4405
Au 12.4106 31.3691 22.3959
Au 7.5197 17.9504 14.0397
Au 22.7808 17.6056 32.9841
Au 15.0882 14.3531 18.0753
Au 17.5821 11.0279 27.8358
Pd 12.7758 25.8836 10.8047
Pd 14.298 19.2967 13.8723
Au 22.32 32.3522 17.7773
Au 21.2034 22.7864 9.16691
Pd 24.6814 27.1844 9.93789
Au 17.8168 25.2437 26.996
Au 13.6496 22.1933 28.1831
Au 23.9925 26.2197 16.9583
Au 26.2109 31.718 23.8751
Au 18.529 24.6371 31.6323
Au 23.4201 18.9112 30.6282
Pd 15.2959 25.6396 9.66036
Au 15.5611 20.4614 33.8418
Au 9.08819 29.1666 14.9336
Au 20.2422 29.9051 27.4745
Au 15.318 25.917 25.5485
Pd 19.5782 15.7142 14.5101
Au 11.1595 8.05846 23.7058
Pd 32.7996 20.3893 27.6383
Au 13.1799 13.2715 19.9621
Pd 32.2327 21.7679 22.9596
Au 20.2843 33.4882 21.9381
Au 11.1896 12.1214 12.6236
Au 24.1117 16.1047 5.43548
Au 19.381 21.9988 31.9493
Pd 29.3414 16.8585 23.5244
Au 16.5999 13.645 7.78059
Au 31.4746 27.1498 24.2312
Au 24.8345 23.2245 13.7929
Au 25.5894 13.3317 11.3633
Au 27.6169 21.9025 22.6171
Au 18.2836 20.9027 10.5662
Au 18.937 32.0232 26.1044
Au 9.73323 29.529 26.7105
Pd 16.6319 18.197 26.6469
Au 7.13065 25.873 21.9448
Au 9.82989 30.3834 22.1392
Pd 23.8626 18.8737 14.3689
Au 6.34194 20.4975 13.4878
Au 18.1826 32.073 21.1687
Au 27.7516 7.78325 17.2903
Pd 14.7708 21.8169 16.2116
Pd 15.0605 19.2694 24.2865
Au 15.2402 32.1339 22.87
Au 28.9243 26.1112 27.731
Au 15.0615 15.0103 13.1007
Au 17.4522 27.7465 10.6329
Au 23.9056 13.9589 30.1382
Au 20.5602 23.4193 6.48557
Au 19.1274 24.4667 19.2662
Au 10.0113 17.4315 12.4978
Au 5.371 20.1313 18.4769
Au 28.3545 13.5152 10.9171
Au 25.7853 13.7939 17.9335
Pd 15.9058 13.5313 20.6157
Au 15.3974 28.3329 8.93193
Au 24.2209 28.3484 29.1677
Pd 12.8525 27.6114 13.2154
Au 34.3364 19.6124 21.3852
Au 14.2524 23.2523 25.3929
Pd 10.1747 18.2246 15.0951
Au 20.912 6.91378 16.196
Au 18.7537 26.6597 20.905
Pd 26.6866 26.1874 15.6993
Au 15.704 23.1666 13.9976
Au 10.8811 19.8793 10.6096
Au 29.6972 27.994 25.999
Pd 15.5878 14.1903 29.2399
Pd 21.5167 20.6923 30.5589
Au 25.9485 26.3045 23.3427
Au 30.0618 9.63145 24.5657
Au 20.503 9.5051 23.6702
Au 8.23775 21.1099 23.0131
Pd 25.7769 19.6043 26.6082
Au 30.9165 29.7828 19.0029
Au 10.8449 18.7755 26.3533
Au 29.6044 18.049 21.137
Au 11.068 20.112 6.87095
Pd 13.3873 19.9528 5.6546
Au 22.4363 6.1904 21.2303
Au 12.4273 11.3632 18.2415
Pd 17.1006 18.8508 12.4939
Pd 23.9764 14.9415 33.0173
Pd 15.5735 12.7532 24.994
Au 23.2185 7.36222 14.9506
Au 7.43793 27.4484 19.8109
Au 22.3494 28.3139 10.532
Au 14.2049 27.0319 23.1149
Pd 18.0942 10.5149 30.4439
Pd 20.8307 26.5536 23.5116
Au 18.2709 22.204 5.8631
Au 28.4473 17.8994 16.0345
Au 18.928 27.1623 15.7387
Au 30.5833 24.144 16.6377
Au 33.259 11.6259 20.7452
Pd 15.6764 17.6203 21.891
Au 11.4218 24.7127 17.5879
Pd 7.38142 23.9661 16.546
Au 15.9117 7.75159 24.2933
Au 30.0682 14.4941 12.7887
Au 15.7494 11.7127 30.3073
Au 13.7406 24.6206 6.25589
Au 29.2453 25.449 24.8736
Au 23.1948 11.444 14.8203
Au 27.0978 15.7006 9.92459
Pd 16.2156 16.1873 30.8351
Au 31.5868 11.8019 17.4499
Au 10.7293 14.2209 26.4005
Pd 31.0574 23.6955 13.8716
Pd 13.3156 11.5026 25.4201
Au 26.2145 11.5594 19.5094
Pd 20.5219 29.3326 15.9299
Au 29.9841 20.694 21.7478
Au 25.5265 17.1386 33.4119
Au 18.2635 13.1947 29.4898
Au 21.3288 10.839 9.16655
Au 22.2236 23.8988 12.6898
Au 22.112 18.8717 28.2216
Pd 26.0165 21.7818 18.0072
Au 7.98381 14.1236 25.7019
Au 10.8534 16.9129 17.5867
Au 16.3472 16.7973 17.1463
Au 25.847 17.1403 16.9313
Au 18.8584 12.0873 8.51586
Au 15.6911 32.8649 20.3841
Au 15.1658 24.5651 16.2163
Au 8.20848 27.4609 12.852
Pd 13.6733 31.005 19.9689
Au 14.1923 31.0615 15.4229
Au 29.1904 23.5421 26.9462
Au 5.4829 21.484 22.8759
Au 26.4187 14.7712 31.9749
Au 25.0274 11.2584 29.5108
Au 16.4288 9.82937 14.9649
Pd 18.7097 29.3669 20.2062
Au 20.9498 18.0566 15.5797
Au 7.184 20.6729 10.6699
Au 21.1386 28.8415 25.0298
Au 34.2473 23.7216 23.6135
Au 32.2889 26.1995 17.2834
Au 28.5255 19.8497 13.9114
Au 24.756 22.2293 7.91002
Au 27.2334 11.0561 27.9851
Au 26.206 14.9203 15.3638
Au 24.1409 21.7269 31.1737
Au 29.5441 15.9351 26.2586
Pd 14.6353 22.4792 32.1862
Pd 20.2332 9.08142 17.9839
Au 6.65786 12.5723 21.3262
Au 27.748 13.8058 19.9121
Au 20.1226 28.3656 13.3764
Pd 21.9851 16.9338 23.6876
Au 23.6571 15.8972 18.0234
Au 25.9442 20.515 13.268
Au 23.7325 18.4151 25.1924
Pd 33.2296 17.1646 17.142
Pd 14.8088 16.7361 28.3656
Au 22.7478 24.0104 15.4548
Au 18.4508 19.8881 25.5518
Au 8.39286 27.3084 26.9542
Pd 31.9823 13.2318 22.5375
Pd 16.5907 25.1878 20.0316
Au 28.3074 19.7572 28.0216
Au 27.1156 31.2631 15.3198
Au 21.741 15.5356 31.6232
Au 23.9656 15.5507 25.3104
Au 17.8354 9.67872 23.1839
Pd 9.55551 20.9134 19.9892
Au 28.6421 15.0628 30.3057
Pd 13.4195 8.73367 25.096
Au 15.042 13.8817 31.8894
Au 17.5599 17.1236 10.4078
Pd 30.058 23.362 21.6848
Au 18.6088 8.08114 15.495
Au 33.4906 15.4106 23.7154
Au 26.6085 21.5629 30.1992
Au 30.5045 17.1765 17.7973
Pd 25.2459 28.4432 15.7085
Au 19.6306 24.4573 16.4764
Pd 6.52497 15.0417 20.4311
Au 24.8584 32.3302 16.4326
Pd 28.8559 15.2386 15.0955
Pd 29.3573 11.576 21.2345
Pd 25.042 10.6459 26.4751
Au 26.0616 13.3974 8.77081
Au 19.8606 14.0881 33.0354
Au 19.7815 12.6993 23.3114
Pd 22.7998 9.86103 25.3107
Au 22.2042 24.0969 24.0185
Au 27.3848 17.2384 31.3379
Pd 24.9563 6.93784 21.6955
Pd 21.9023 22.835 32.1882
Au 25.0659 11.1104 23.6219
Au 23.3182 18.6631 16.9986
Pd 27.8006 20.6684 11.2283
Au 5.16099 25.9997 19.9759
Au 32.3319 21.3992 20.2138
Au 13.2202 20.143 32.4789
Au 27.1824 32.6333 17.9799
Pd 26.9739 22.0848 15.3231
Au 11.8909 16.7936 27.9511
Pd 17.343 25.5783 17.4724
Au 16.5736 6.57914 19.6617
Au 24.2845 20.7457 28.6303
Au 6.88205 14.5339 23.0783
Pd 19.1624 18.4829 27.8991
Au 14.9441 29.8726 27.2516
Au 20.7464 21.705 11.7384
Au 10.7875 27.7112 16.7093
Au 27.908 24.7577 22.4148
Au 29.0394 26.2772 17.1477
Au 10.5516 19.6919 22.1355
Au 31.3526 25.1397 26.5286
Pd 15.3631 12.4856 14.1224
Au 33.6255 16.9145 14.3834
Au 14.7552 7.61298 27.0175
Au 25.5336 20.2158 23.7638
Au 21.0393 14.5926 24.9399
Au 19.584 9.62056 26.2873
Pd 7.74329 21.6072 17.9303
Au 19.9386 16.7837 33.281
Pd 27.916 15.5242 17.6463
Pd 14.018 12.4986 11.6631
Pd 21.7926 10.7415 19.3789
Pd 26.3662 17.6017 14.1734
Au 22.211 26.6875 12.7125
Pd 7.99584 28.5745 17.4555
Au 22.0415 16.5817 13.3965
Au 18.6673 6.87699 17.9446
Pd 25.3916 25.077 20.9577
Au 16.0216 28.7408 29.5544
Au 7.26459 16.5555 24.6812
Au 15.4491 15.5964 25.9186
Au 30.7662 13.2204 15.1403
Au 6.38433 15.4443 17.6998
Au 23.4946 21.0131 18.5331
Au 33.6343 19.2948 15.438
Pd 6.82403 21.4083 20.4306
Pd 15.9591 23.7571 7.88211
Au 9.6165 18.5651 28.7371
Au 22.3724 20.2872 9.96145
Au 20.7638 30.8673 21.1339
Au 15.3648 6.08038 22.0895
Au 22.1169 31.465 15.1793
Au 5.89181 21.4739 16.0292
Pd 17.7666 15.6646 22.1147
Au 18.1334 11.6625 25.2253
Pd 23.0824 29.9178 19.7869
Au 6.38269 18.4112 11.7493
Au 8.91412 20.84 27.1939
Au 22.1018 27.9353 17.8224
Au 22.6612 26.9571 8.18953
Au 28.0018 17.957 18.8908
Au 21.3757 12.9489 20.9423
Au 9.51239 23.019 7.53043
Au 17.597 31.8567 18.5353
Pd 16.2632 27.5699 15.9757
Au 23.4929 16.9399 7.88372
Au 27.5999 24.2123 29.4182
Au 14.5502 15.3425 7.24912
Pd 14.563 21.0737 18.7879
Pd 23.8824 11.4377 21.0321
Au 27.6763 20.3553 20.1998
Pd 10.5683 24.3806 9.90004
Au 10.9429 31.0515 19.7719
Au 19.0499 16.5896 25.93
Au 24.8206 31.9419 19.1449
Pd 25.5825 8.94073 18.5632
Au 7.65303 13.1812 18.7866
Pd 25.9108 18.4331 21.2485
Au 15.9049 23.4883 27.6422
Au 28.2474 13.9134 27.7629
Au 8.71169 11.1903 20.6843
Au 16.7942 17.9805 34.0528
Au 21.8535 16.6981 26.5278
Au 22.9544 29.1801 26.9596
Pd 18.998 16.0814 17.0669
Pd 10.8717 14.8862 12.5938
Pd 9.9324 22.1289 16.3537
Au 24.8993 23.4485 28.7498
Pd 23.0677 8.49892 17.4383
Au 9.11538 12.8778 14.2103
Au 30.8199 19.9423 29.3172
Au 30.0354 8.61855 21.7382
Pd 22.9325 20.6991 26.3222
Au 20.6597 30.2177 18.4625
Pd 11.176 16.9067 22.365
Au 28.7202 31.2693 19.752
Au 21.2068 27.967 20.5835
Pd 30.3474 19.7138 19.03
Au 27.9587 23.6156 17.4609
Au 14.8771 19.075 16.5722
Pd 27.3089 15.9547 21.8491
Au 17.4759 16.0683 28.2731
Pd 14.7634 20.712 30.166
Au 15.246 18.4891 31.9047
Au 13.3353 18.33 29.932
Au 25.0748 28.129 18.6841
Pd 31.7387 17.3046 24.588
Au 19.4792 13.7445 12.652
Au 12.8937 17.5962 6.8607
Au 24.3184 16.3562 22.0328
Au 25.1562 13.3785 27.688
Au 20.6906 19.9963 23.2363
Au 15.7182 15.0267 10.0286
Pd 19.7699 24.6089 25.158
Au 11.3011 15.5048 15.2153
Au 16.7471 21.1537 7.97467
Au 30.5906 26.0862 21.8139
Au 27.4636 10.2781 14.2809
Au 27.2643 10.4087 17.0642
Pd 24.5509 24.9511 25.1351
Au 13.1998 28.9348 29.2894
Au 17.9501 12.0176 13.9742
Au 32.5925 14.5874 13.7742
Au 23.8241 24.4251 31.0927
Pd 22.2731 15.5591 20.3862
Au 19.5222 6.08544 20.4518
Pd 14.534 24.0015 11.7162
Au 28.7258 25.2024 19.7842
Au 16.6824 18.527 29.4565
Pd 13.7402 30.7248 24.7937
Au 22.3243 29.3149 22.6896
Au 10.215 19.6957 17.5015
Au 20.8811 8.47859 20.9617
Au 24.0872 23.7229 18.7501
Au 12.3753 18.8794 23.9039
Au 15.5793 14.7527 23.1762
Pd 32.6339 23.9754 21.3855
Au 8.76057 25.4991 8.36908
Pd 22.5717 11.394 30.3983
Pd 13.2288 15.0702 11.1446
Pd 24.7243 16.1495 12.4562
Pd 26.8421 13.0537 29.9649
Au 32.3539 21.508 14.7256
Pd 12.6463 17.5057 32.3484
Au 17.124 22.7462 33.2386
Au 16.775 31.6933 15.9782
Au 20.1401 15.9193 28.4786
Au 16.1068 10.667 12.2581
Au 12.1741 22.6321 11.3366
Au 27.7945 20.9149 25.2595
Pd 13.6712 28.4292 15.8324
Au 8.99363 25.9754 17.854
Au 22.7877 28.5755 14.7665
Pd 15.5135 18.5233 19.2314
Au 30.8581 19.4319 16.222
Pd 10.3275 12.9663 18.9596
Pd 28.047 9.5125 19.8307
Au 32.5319 19.9713 25.0468
Au 6.82533 21.2663 25.3466
Au 22.2997 12.9922 32.4614
Au 19.3191 28.5782 22.7706
Au 20.5628 24.4687 27.6751
Pd 23.9234 16.3006 15.2128
Au 10.8541 27.1207 8.96948
Au 13.9193 23.8991 18.4512
Au 8.55934 29.5014 24.31
Au 26.8317 29.2173 13.551
Au 31.5391 10.6288 22.5706
Au 28.5728 27.5808 23.356
Au 29.9034 9.24513 17.7451
Au 26.9517 23.0866 20.1947
Au 15.8499 21.023 5.30896
Au 10.4588 20.7957 24.705
Au 19.6204 13.6525 27.0767
Au 14.6835 19.6142 27.7521
Au 14.9534 17.4086 11.7355
Au 20.5938 6.73486 23.0491
Au 11.2275 11.7899 21.2451
Au 15.3242 29.6845 17.6868
Au 21.6747 8.9282 27.9093
Pd 23.432 21.2752 12.5796
Au 10.6889 22.5362 22.3759
Au 20.6118 11.2586 13.6309
Pd 20.9078 18.9682 25.6566
Au 8.15609 19.9992 15.7155
Pd 9.60945 25.6058 20.506
Au 12.7578 17.7693 15.8223
Au 28.3104 30.8514 22.5127
Pd 17.8823 29.6273 14.8355
Pd 8.26835 17.0599 16.6159
Au 19.3556 17.3587 6.22825
Au 33.0062 19.7007 18.008
Au 16.2074 11.9463 9.77043
Au 12.6788 19.1733 18.3883
Au 18.1488 18.1769 20.9221
Pd 17.885 19.5224 5.90919
Au 23.2237 13.2407 18.969
Pd 21.5696 15.4716 16.2751
Au 23.5536 30.0731 17.0651
Pd 26.131 15.538 29.1422
Au 9.0666 20.5989 8.67451
Au 14.0165 15.6288 20.9613
Pd 24.6372 26.9242 26.9852
Au 9.44382 25.0153 23.5203
Au 8.29674 30.1228 19.863
Au 23.4387 12.6886 9.51933
Au 16.0638 21.2255 25.8579
Au 15.7916 26.2804 6.97543
Au 6.52686 19.0712 23.7618
Au 9.72357 10.1634 23.0739
Pd 14.4836 21.8818 9.83504
Au 26.0677 18.7219 29.3837
Pd 7.8909 18.9608 18.5327
Au 30.7041 18.3265 26.9579
Pd 27.2505 23.6477 24.8669
Au 35.0216 21.0294 19.1254
Au 25.8827 16.2436 19.5618
Au 8.65081 15.9794 19.1448
Au 12.2315 30.1161 27.0525
Au 15.7383 10.0493 25.9882
Au 26.5149 24.9669 27.1026
Au 5.99012 18.4645 16.4459
Au 13.1795 14.2253 24.8227
Au 21.7755 19.1367 12.4844
Pd 19.8768 31.0832 23.6637
Au 21.4844 22.2157 16.9727
Au 34.8304 15.583 18.7956
Au 30.9742 13.6164 27.0028
Au 17.872 32.9502 23.6914
Pd 28.2533 22.6482 13.0681
Pd 27.3604 10.2944 25.2297
Au 11.028 12.5019 24.1721
Au 21.2924 18.5822 7.9245
Pd 20.4517 19.3197 32.6004
Au 25.2662 6.96631 16.7299
Pd 26.3273 30.2082 17.6566
Au 22.9443 20.2997 33.0467
Au 24.4432 31.0864 21.9065
Au 29.4996 22.2777 19.2532
Au 13.9025 13.3407 9.02205
Au 24.1178 6.31853 19.0279
Au 20.7135 7.94598 13.6064
Au 24.4499 28.3097 12.5164
Au 9.80668 24.5745 15.3548
Au 28.2192 17.0663 28.4026
Au 20.069 29.7531 10.9795
Au 10.9164 30.9416 24.7131
Au 22.3506 32.2513 23.203
Au 7.20663 28.8952 22.0593
Au 26.6452 32.497 21.0872
Au 17.7558 14.0142 18.2751
Au 18.1317 29.4221 17.4508
Pd 17.0755 12.3851 22.7721
Au 29.1882 12.205 23.9082
Au 26.7001 6.73006 19.5128
Pd 18.0884 18.7594 8.38988
Au 28.3221 20.4489 17.3327
Au 23.0113 25.5124 28.6105
Au 29.1347 30.7991 17.1015
Au 28.0837 7.76792 24.6276
Pd 21.0077 11.8501 25.6728
Au 11.2794 15.5127 19.9586
Au 21.0172 19.8463 18.5199
Pd 16.9754 14.6993 15.3251
Au 15.809 17.2551 14.4915
Au 8.92955 22.8957 25.2782
Au 25.0646 21.1402 21.0139
Pd 30.3226 14.3077 17.5479
Pd 24.1 21.4606 15.8258
Au 22.596 32.7347 20.4942
Au 17.2932 8.07694 26.9238
Au 32.28 18.0211 19.9519
Au 11.5672 27.3153 27.2542
Au 13.239 9.75662 27.6009
Au 12.3559 21.8967 30.6437
Pd 13.5869 28.1362 25.7378
Pd 11.6069 23.3235 24.7591
Pd 17.0229 16.3719 7.76716
Au 19.8528 31.0694 13.7022
