923
Atoms. Timestep: 20478
Au 6.77009 22.731 26.356
Au 18.2065 16.5542 17.1104
Au 23.6329 13.9125 30.0098
Au 15.0577 11.9725 21.6872
Au 24.2556 26.6182 23.8789
Au 7.03304 20.4349 23.5168
Au 34.1197 20.3838 17.5429
Au 10.344 16.3638 15.8605
Au 28.3467 15.636 11.7923
Au 29.4045 19.5436 28.2025
Au 14.6818 22.6179 7.10096
Au 12.5461 23.8007 22.1704
Au 14.8207 10.2144 19.591
Pd 32.4983 19.7154 19.5448
Au 14.4636 13.2639 25.4398
Au 28.0019 31.2427 21.0538
Pd 12.1445 16.0862 29.7396
Au 12.0788 11.6238 30.0766
Au 26.8236 12.9425 18.0889
Pd 26.5046 12.9052 23.0623
Au 27.335 15.078 19.8604
Au 28.5546 9.98184 11.192
Pd 20.356 12.8941 20.3009
Au 11.4749 9.99258 14.9841
Au 22.0652 25.3266 15.2826
Au 16.111 31.7999 17.983
Au 18.5671 8.54867 20.1362
Au 28.7689 25.5651 11.9975
Au 21.5812 20.399 6.19991
Au 18.7546 20.1236 5.42984
Au 12.6236 15.3192 25.0723
Au 15.6631 31.5774 26.5968
Au 23.7893 21.0182 31.1455
Au 23.9488 22.082 6.74955
Au 15.4882 13.2846 7.53238
Au 6.32967 16.9537 18.0082
Au 17.7234 23.078 27.2523
Pd 22.4291 13.829 9.26523
Au 29.439 19.8968 11.1545
Pd 19.4614 25.2661 27.7253
Au 13.062 31.5837 25.678
Au 16.9882 29.3226 25.6102
Au 22.1717 16.2385 29.6068
Au 25.9786 24.3044 30.7861
Au 23.4726 17.1202 25.4277
Au 17.5328 17.1755 33.6281
Au 4.9499 21.7081 24.5248
Au 16.7871 33.3042 20.0811
Au 20.5082 30.6015 10.9315
Au 30.0018 12.1435 14.2689
Au 15.2324 26.9621 8.45659
Au 23.7533 10.1445 11.7661
Au 26.4094 10.7842 24.6688
Au 11.2196 22.7838 13.2638
Au 32.3483 11.0361 14.0999
Au 13.2402 18.0492 24.7617
Au 24.1675 24.2633 19.6664
Au 11.7553 14.3725 14.437
Au 16.9147 12.369 14.5218
Au 7.62619 16.5705 15.7241
Au 6.63279 14.1929 22.6442
Au 18.3784 20.8012 28.9732
Pd 25.3084 9.28825 13.8328
Au 11.3883 25.5712 27.2951
Au 27.6792 12.4571 26.5641
Pd 18.4678 24.8457 25.0584
Au 29.4071 24.2985 19.3311
Au 12.7822 15.4481 32.3683
Au 28.0319 17.4294 20.9859
Au 11.073 22.3871 19.8976
Au 27.3713 11.9077 20.6887
Pd 23.0029 12.8632 27.1031
Pd 21.5876 13.0208 22.9
Pd 22.8117 22.3603 26.7672
Au 14.9282 18.4301 7.19605
Pd 33.5725 23.0163 17.4366
Pd 16.2928 28.3662 30.8874
Pd 23.6999 10.4743 15.7823
Au 21.7804 22.1004 32.9337
Pd 25.8918 28.318 17.5479
Au 29.8811 14.3794 26.4308
Pd 22.3565 14.67 20.8126
Pd 13.586 20.5779 30.6947
Au 24.0715 13.1648 11.4734
Au 20.4848 27.3149 14.3945
Au 5.61763 21.5393 19.512
Au 20.0192 21.292 31.0394
Au 16.5361 17.9697 23.194
Au 14.8137 30.1958 24.082
Au 17.1614 31.5436 14.0396
Au 9.49192 12.601 29.4134
Au 24.3393 24.5241 26.0263
Pd 19.4958 17.605 22.6059
Au 5.74543 16.3133 23.9956
Au 17.239 8.99354 26.4461
Pd 21.099 27.2486 28.3619
Au 8.32057 12.4938 23.8657
Au 11.2055 17.8382 18.3616
Au 13.0631 8.11003 24.2208
Au 30.5822 15.2308 17.1864
Au 30.1696 28.1978 15.3749
Pd 16.1493 16.0037 18.7897
Au 12.4017 24.9181 19.4776
Pd 19.5385 25.3454 16.4517
Au 16.5874 11.6261 24.074
Au 20.501 19.064 12.8376
Au 9.81249 24.5383 31.0854
Au 25.7172 22.5709 17.9
Au 5.38761 18.7813 19.794
Au 17.2974 6.91654 18.3056
Pd 27.6116 10.6756 13.6684
Au 12.5201 29.6995 16.1908
Au 22.2188 16.9941 33.3635
Au 18.7935 19.2148 16.2989
Au 14.528 18.7281 33.6922
Au 14.7658 14.2278 14.853
Pd 21.765 33.4103 19.3213
Au 15.311 26.9821 19.0818
Au 13.0551 14.4726 8.53407
Au 8.03671 19.4473 29.9874
Au 24.3665 22.5073 11.6043
Au 9.98467 16.7035 20.6632
Au 23.0716 32.0624 26.9345
Au 31.571 23.4502 25.2768
Au 21.2537 7.51549 15.9261
Au 19.9371 14.9131 9.9495
Au 32.131 13.5052 15.7191
Au 18.7189 23.5195 30.0018
Au 23.229 29.9845 11.4146
Pd 25.7131 30.9655 22.3498
Au 13.0355 28.3304 12.3646
Au 23.7334 31.1196 24.4894
Au 14.3603 29.1632 26.6342
Pd 14.5802 20.5077 8.79361
Au 27.452 17.7052 27.9712
Au 4.7884 20.1587 22.0179
Au 14.967 6.68305 22.9113
Au 27.0422 15.5803 7.08515
Au 8.54757 26.8362 17.4514
Au 25.9772 6.52304 14.1476
Au 19.5442 29.8899 13.5132
Au 8.49838 28.4462 19.682
Pd 26.3644 26.4825 13.2182
Pd 24.9837 22 14.1568
Au 5.79867 18.8102 28.5058
Pd 21.1645 23.047 16.4078
Au 7.49247 21.9096 16.1017
Au 20.6827 11.7833 17.9559
Pd 25.4245 15.5223 15.421
Au 14.7324 17.7765 27.2211
Au 11.2925 14.0772 28.0076
Au 21.8132 21.803 24.1415
Pd 13.3264 18.4261 11.5146
Au 11.6675 13.9332 20.535
Au 7.27962 19.4623 14.9226
Au 14.9159 11.5631 30.4797
Au 16.9631 15.8352 21.3785
Au 11.9984 18.3467 22.134
Au 19.6443 23.7486 14.3106
Au 10.2342 28.4038 28.3368
Au 12.5811 21.4258 15.2342
Au 21.89 28.8267 9.25947
Au 21.3243 7.56127 11.7905
Au 20.4918 27.1768 7.61132
Au 6.59095 17.9662 22.0623
Au 26.4171 10.946 16.2442
Au 22.2643 33.3615 24.7127
Au 13.119 16.3506 15.7249
Pd 27.8791 29.5402 16.0509
Au 14.5208 24.6705 17.6626
Au 17.4149 29.8905 11.6597
Au 9.11861 13.8982 16.2932
Au 17.0015 20.7043 23.0154
Pd 13.2844 12.1796 27.8273
Au 26.5066 20.9765 7.42939
Au 26.2662 23.6273 7.48579
Pd 22.2325 24.7731 28.005
Au 27.6959 9.85801 22.4923
Au 14.1944 14.703 17.6042
Pd 13.3755 32.2687 22.8702
Au 20.1571 16.1814 7.43148
Au 19.9006 18.2742 33.9745
Au 25.1216 21.8384 25.4471
Pd 21.1357 13.8566 28.922
Au 27.3573 15.0309 27.4484
Pd 19.5553 23.3079 9.66711
Au 13.3757 11.8561 14.5791
Pd 12.4055 21.1775 21.8751
Au 13.4917 6.8415 20.7278
Au 15.7204 13.165 28.0148
Au 26.103 34.847 18.9791
Pd 18.138 17.8354 14.1041
Pd 22.5814 26.2506 10.2529
Pd 20.871 11.0803 24.8117
Pd 11.246 21.8867 26.5626
Au 13.0987 19.5941 19.7851
Au 11.0563 32.4874 24.133
Pd 22.0787 18.4003 27.6272
Pd 12.8511 18.6182 28.9895
Au 24.1038 28.5951 31.0521
Au 20.8483 10.2605 15.5914
Au 15.9679 24.8532 26.1689
Au 22.3063 22.6821 13.7093
Au 29.3792 26.8266 25.9387
Au 19.5869 12.7914 32.8899
Pd 20.4465 22.3519 20.0766
Au 17.0902 28.8538 14.3956
Au 12.0385 19.6383 9.37898
Au 16.0312 29.8807 20.3473
Au 9.98917 24.3439 21.6026
Au 23.9335 33.716 17.6074
Au 28.8681 17.2633 18.4092
Au 19.3395 28.4306 31.6136
Pd 7.96599 22.9672 23.7919
Pd 24.3726 20.8801 9.2364
Au 12.649 25.8176 13.0528
Au 15.7006 8.99736 24.114
Au 32.4313 22.8546 22.7939
Au 11.5794 18.7622 15.7972
Au 31.4214 16.3151 25.1224
Au 19.3022 23.6549 32.6779
Au 26.7585 13.9874 10.2184
Au 11.7387 12.6394 16.6316
Au 16.9702 25.2014 28.8986
Au 20.4593 13.3807 26.2118
Pd 24.8178 12.4839 8.98556
Au 9.18496 25.9242 28.8088
Au 13.4975 27.7041 23.9977
Au 15.0322 25.3815 14.6477
Au 28.6433 19.8217 25.5435
Au 22.9389 7.50486 22.3713
Au 29.9639 17.5885 12.9316
Au 17.475 17.758 6.51749
Au 30.1066 29.3993 21.423
Au 18.5092 7.16318 15.8607
Au 12.2124 24.9368 29.8835
Au 31.9014 29.2928 19.4441
Pd 22.5896 21.5316 21.4225
Au 10.4833 19.5183 31.4917
Au 25.8778 25.2579 17.4312
Au 16.4927 23.847 31.7849
Au 10.3649 30.4785 25.8421
Au 10.9053 22.9918 24.1455
Au 11.8324 30.4883 19.0341
Au 15.3474 20.0843 28.6469
Au 8.84659 20.5438 12.6953
Au 10.6548 21.5378 10.887
Au 21.3045 33.9313 16.7314
Pd 16.7853 14.3145 16.695
Au 9.41279 30.6838 23.1798
Au 21.6042 24.7568 8.24615
Pd 10.2704 26.4471 19.5904
Au 17.6375 31.7104 24.5481
Pd 27.3605 21.6644 20.611
Au 15.1122 22.5364 22.152
Au 29.7309 27.2918 23.2242
Pd 14.1522 28.0647 14.7927
Au 11.7685 28.2036 26.0729
Au 33.3261 18.12 16.2023
Au 12.5174 9.80855 26.2509
Au 21.7408 19.2151 23.0408
Au 16.9949 11.9601 32.3162
Au 10.0611 10.6752 25.0785
Au 16.7059 15.7671 27.974
Pd 24.8 17.9795 27.6792
Au 32.0271 24.6405 19.2583
Au 27.5609 7.29007 20.9221
Au 21.6417 8.34523 24.6494
Au 13.4463 27.9592 31.3401
Au 33.3238 15.577 17.253
Au 9.43717 13.3429 18.9317
Au 25.1503 22.6158 21.8269
Au 8.94465 18.6957 16.918
Au 17.5165 22.7828 5.84867
Pd 17.2993 21.3243 31.5213
Au 20.6413 20.491 26.3888
Pd 13.0412 23.7894 26.0584
Au 13.9622 23.3641 13.0387
Au 10.4824 17.4059 24.6725
Au 18.7623 24.7375 11.9928
Au 8.84295 21.9235 30.552
Au 24.0182 17.8747 16.1119
Pd 28.1577 28.4484 13.4539
Pd 25.0777 25.4207 10.9025
Au 22.609 10.1083 26.6563
Pd 24.8583 29.9295 26.7662
Au 19.2352 7.01968 24.8833
Pd 18.3281 11.1544 19.568
Au 32.1254 27.5413 21.9025
Au 16.5897 6.62656 25.2087
Au 29.8847 19.8792 19.3664
Au 27.0086 31.5652 14.5606
Au 24.9955 16.1093 11.0883
Pd 13.907 15.129 27.569
Au 23.192 19.7725 13.7312
Pd 17.1575 24.7744 9.51703
Au 21.391 23.1316 6.16122
Pd 25.4433 20.0523 17.0922
Pd 24.2903 20.4048 23.2093
Au 24.2047 15.3111 27.5044
Au 9.31543 23.8474 26.3383
Au 23.855 27.3275 12.5183
Pd 14.8037 15.4439 10.4547
Au 25.8518 19.1842 25.3949
Pd 17.1012 24.4695 22.6634
Pd 26.6725 23.8459 12.2728
Au 17.68 13.0362 21.4487
Au 18.4717 11.4501 26.3254
Au 6.37816 21.3402 28.8739
Au 25.2014 15.2587 18.1121
Pd 28.0129 22.4793 25.8402
Au 19.6558 8.39591 13.7455
Au 8.13224 29.2261 25.0565
Au 22.713 29.1452 14.0907
Au 20.6133 11.2655 28.2323
Au 9.51206 11.0992 16.6607
Au 7.50065 20.4086 20.9286
Pd 6.30163 16.9483 26.6115
Pd 9.26841 18.824 22.5925
Pd 10.4613 14.5878 9.43105
Pd 22.8992 14.5023 25.0223
Au 16.5423 24.3215 19.5314
Au 14.2924 7.82096 18.2467
Au 24.3858 20.605 28.2043
Au 28.9924 12.2914 9.69116
Pd 25.5032 32.2282 19.3201
Pd 26.1502 19.2935 21.5685
Pd 21.5595 18.8477 15.7352
Au 24.093 24.6807 13.3731
Pd 9.50818 11.4577 21.1115
Au 22.3097 15.4449 11.5318
Au 15.8996 16.9135 15.6083
Au 26.1077 8.64118 11.2882
Au 27.6426 16.7147 14.3211
Au 7.0031 14.3177 18.0346
Au 31.1034 30.4201 16.7013
Au 30.78 13.9155 23.8961
Au 15.098 22.1541 26.8302
Pd 18.3884 31.5957 27.1582
Pd 7.31167 15.7439 20.4223
Au 18.1973 30.7905 16.4502
Pd 27.8361 24.7535 29.0124
Au 20.4041 10.7772 7.5305
Au 10.7309 28.3659 17.6988
Au 17.8839 14.8358 7.01304
Au 14.6678 12.7607 10.0831
Au 27.2473 10.5345 8.81042
Au 25.2673 17.9205 19.0606
Au 23.1911 27.0357 7.72347
Au 25.1956 6.95901 19.7074
Au 32.0921 26.3508 14.8243
Au 29.776 14.8904 14.2313
Au 18.7588 31.1643 22.0915
Au 23.1485 31.1867 18.3942
Pd 18.827 19.3897 24.4872
Au 27.221 25.1368 26.4061
Pd 26.6415 15.6406 22.6264
Pd 14.5981 14.5368 20.5844
Au 10.4323 16.7435 31.6859
Au 13.6931 13.9424 30.0552
Pd 26.1326 14.5275 12.9508
Pd 24.9997 19.778 11.7398
Pd 25.1062 13.4282 20.3307
Au 6.77487 23.557 18.1387
Au 28.7103 23.1693 13.8721
Au 8.62804 21.2789 18.4725
Au 18.9374 26.77 23.0454
Au 7.14472 25.4325 26.5282
Au 22.2566 20.7696 11.2469
Au 20.8053 29.7496 15.8887
Au 17.997 9.8332 15.3153
Pd 17.4509 20.4736 26.5479
Au 28.7726 21.482 8.92133
Au 12.8546 16.546 20.1263
Au 16.1943 24.835 7.04912
Pd 24.0146 7.3587 12.4952
Au 27.8937 15.164 16.8486
Au 14.9465 34.1352 21.8525
Pd 19.416 16.2362 28.9538
Au 13.6277 10.2747 10.4788
Pd 8.28366 18.6831 27.3674
Au 21.2211 28.1261 11.7788
Pd 15.9659 22.5798 29.4344
Au 5.02769 18.812 24.3986
Au 17.5745 26.9872 26.6697
Au 24.6469 16.1343 20.9082
Au 14.9334 28.8963 10.5368
Pd 9.12016 25.3065 24.0797
Au 18.1412 18.8027 11.3403
Au 5.76768 24.3684 24.4569
Pd 10.4426 23.3065 28.7675
Pd 11.5407 27.3845 15.0236
Au 18.6858 8.29929 11.256
Pd 28.3933 21.9565 18.191
Au 16.1075 9.20761 10.9241
Au 22.5081 16.5345 8.90447
Pd 14.407 19.6011 22.5666
Au 9.52633 16.2235 11.4975
Au 23.4204 18.7068 21.0166
Au 13.4911 31.8884 17.3714
Au 9.21666 14.0905 21.7013
Au 18.1766 9.72073 9.04048
Au 26.1266 26.9328 30.4224
Au 29.2811 9.17176 20.3613
Au 16.9896 19.7687 33.8537
Au 20.1617 16.5883 15.4069
Au 26.2898 21.678 30.0899
Au 21.9013 27.5291 32.1579
Au 31.6315 8.80919 15.4621
Au 25.8754 29.2327 12.0736
Pd 19.7681 18.8796 7.67043
Au 18.3946 20.6324 18.8688
Au 29.0472 18.8177 8.54497
Au 20.2132 8.12154 22.3193
Au 23.3213 26.6965 21.1378
Au 16.6275 18.7035 18.2018
Au 10.4824 13.6946 12.0076
Pd 18.6131 28.7349 20.6571
Au 23.9374 7.55768 15.4539
Au 25.4827 8.21774 22.2653
Au 24.028 34.3262 20.4832
Au 22.1718 17.7144 6.37915
Au 18.2109 21.9173 16.0501
Au 25.0889 11.0577 26.9148
Au 21.83 24.9243 32.8369
Au 14.3335 24.6428 28.3076
Pd 19.0992 22.1518 24.9827
Au 11.2607 9.5961 22.8167
Pd 13.8953 26.4698 26.2925
Pd 25.7174 26.7627 19.7207
Au 11.6295 19.9582 13.1895
Au 28.1248 23.6014 22.1771
Pd 22.5264 16.4818 22.8852
Au 26.9349 20.3725 27.6315
Pd 28.5979 22.2174 28.5831
Au 28.8713 19.801 14.0095
Au 19.0245 24.5596 7.287
Au 23.8247 24.7251 6.58597
Pd 19.151 28.6697 9.7177
Pd 19.3072 18.4093 27.2509
Pd 17.9308 19.1443 21.0517
Pd 8.96837 26.7854 21.8374
Au 17.8791 15.0684 14.2887
Au 18.6887 16.9891 19.7418
Au 14.9428 21.3972 32.9476
Au 23.1142 6.72939 17.9358
Au 16.916 23.1457 13.9388
Au 18.0561 11.9192 17.0357
Au 13.2932 10.2626 17.2326
Au 15.1347 10.7513 26.319
Au 19.7521 16.3619 12.4269
Au 16.5459 13.9888 30.4376
Pd 20.694 31.3135 25.6566
Pd 17.93 15.8225 23.9249
Au 8.61361 22.9246 13.9022
Au 33.02 15.6376 19.984
Pd 17.7531 25.9664 14.3598
Au 21.6061 19.391 32.1929
Au 24.0867 23.7347 9.08099
Au 27.626 27.2383 28.095
Au 19.4421 29.1812 27.1828
Au 20.5313 15.2954 24.1374
Au 6.95519 25.0703 22.2116
Pd 14.9113 22.6761 15.76
Au 23.1263 25.8143 30.3099
Au 18.6462 33.3552 17.8419
Au 12.6557 27.8062 19.697
Au 14.1556 32.1945 20.0153
Pd 14.0794 26.2088 10.7497
Au 7.69698 23.7271 28.797
Pd 19.7576 20.5239 9.9547
Au 16.8537 9.65906 30.9063
Pd 18.5315 18.9625 31.6828
Au 11.1057 13.8815 31.111
Au 6.48904 19.7517 17.5498
Au 29.1602 22.8706 11.1889
Au 24.2711 19.4223 6.76647
Pd 22.9493 16.6232 18.6716
Au 25.4688 13.6303 25.5766
Au 35.0761 22.8515 21.5882
Au 30.5657 27.3048 12.8504
Au 15.2329 11.2176 12.5743
Au 22.6704 31.7788 15.7352
Au 23.156 21.1099 16.0715
Au 19.7795 33.1858 23.7621
Au 13.3659 30.005 21.3233
Pd 17.1347 16.2377 11.7594
Au 7.69357 28.9289 22.3526
Au 16.6039 9.55446 17.7524
Pd 28.1159 26.1918 21.3246
Au 22.9247 18.1061 11.3242
Au 22.2331 19.2922 8.74252
Au 23.2942 11.3203 29.1472
Pd 10.9195 25.6055 16.9982
Pd 25.1801 29.6052 19.8713
Au 26.5096 33.5232 21.3805
Au 15.8756 20.4437 11.0768
Au 14.3576 16.219 13.0677
Au 19.4315 29.3797 24.2381
Au 12.916 18.0503 31.6565
Au 24.7914 33.295 15.082
Au 31.4521 23.9251 15.797
Au 14.0422 20.4853 17.398
Au 10.3605 19.7242 20.2553
Au 29.8349 21.8358 23.7561
Au 23.1621 19.8132 25.5965
Pd 27.5915 18.1098 23.6356
Au 27.288 19.5238 19.0843
Au 20.8472 17.7777 25.1268
Pd 28.3592 10.6671 18.34
Au 22.8061 9.52408 7.60878
Au 13.445 10.9913 23.9547
Pd 23.5351 14.3577 13.8635
Au 22.8456 11.9142 20.6308
Au 27.8556 28.6392 20.1619
Pd 24.2454 18.7159 32.4669
Au 12.1944 15.803 11.0215
Au 16.2157 19.9078 15.7316
Au 20.9197 31.399 28.3984
Pd 9.67446 21.5142 22.2657
Pd 28.4608 24.1662 16.7093
Au 25.41 29.0586 24.35
Au 24.3762 33.328 23.0219
Au 28.9661 14.9328 8.85139
Au 19.4353 33.3792 20.6584
Pd 25.4457 27.237 26.3777
Au 25.6174 26.0849 8.36491
Au 14.6949 24.0721 33.7217
Au 34.739 24.6388 19.3884
Au 14.0672 17.73 17.8414
Pd 10.2733 22.9898 16.1405
Au 20.3393 18.7985 29.6824
Au 16.0876 27.1185 16.4626
Pd 17.1342 17.7835 25.9185
Pd 20.6713 15.2118 18.5477
Pd 26.8497 24.1834 19.7564
Au 17.5148 22.4205 11.2854
Au 14.3257 29.6763 29.4366
Au 18.6613 27.5131 12.3477
Au 21.535 23.464 30.467
Pd 13.9276 23.2848 31.1985
Pd 15.2436 16.3484 32.4925
Au 14.3088 29.4868 18.2625
Au 26.3696 9.54048 19.947
Au 28.9985 32.0046 16.6204
Au 22.5677 28.8051 19.4933
Au 27.913 8.01788 13.1803
Pd 14.0535 9.17394 21.9508
Au 18.5004 13.5335 28.2961
Pd 22.373 8.989 13.8041
Au 15.8802 7.51026 15.9957
Au 22.7592 12.1816 7.07446
Au 7.55552 25.7585 19.6758
Au 12.3178 23.9729 10.9301
Au 26.2912 23.9376 24.1555
Au 16.0353 13.8528 12.3682
Au 17.9064 12.1441 7.7793
Pd 9.98848 14.5859 24.6877
Au 14.8347 16.6651 29.851
Au 16.1191 12.7683 19.1381
Pd 32.2301 28.027 17.1451
Pd 15.2841 9.98606 15.1665
Au 9.0739 12.9802 26.6691
Pd 15.486 27.3541 28.4161
Au 31.1784 18.7908 26.3295
Au 15.3288 33.1393 24.4249
Au 23.6293 11.8393 24.4907
Au 15.7653 18.9482 31.3192
Au 22.5675 15.4799 16.2517
Au 14.7913 13.5889 32.4988
Pd 30.7619 21.5535 13.1024
Au 18.9627 13.0943 23.8528
Au 12.6271 24.3885 15.3458
Au 24.6652 13.1156 16.2635
Au 8.1072 18.2938 19.5058
Au 30.7889 11.5508 11.7243
Au 19.8359 32.3991 15.0644
Au 25.5751 28.9643 14.715
Au 17.8565 26.9415 7.88291
Pd 16.0023 31.6782 22.1947
Au 14.5878 25.1813 21.1623
Au 12.6982 25.5065 32.4084
Au 13.2419 13.6815 22.893
Au 14.618 7.9823 26.5269
Au 25.0496 8.80428 17.6556
Au 13.6936 9.12957 13.1489
Pd 20.428 21.0078 14.7375
Au 30.6339 24.8775 21.8219
Au 12.526 22.2836 8.86642
Au 14.7533 27.8139 21.7481
Au 35.6067 22.2081 18.9756
Au 21.481 29.2306 30.0337
Au 27.0798 27.2473 10.6823
Au 27.3907 13.2503 14.9908
Au 24.5726 28.1091 9.89997
Au 29.9352 11.4053 21.7936
Au 32.1582 16.15 14.7626
Au 21.5434 7.32904 20.055
Pd 14.4242 24.7712 23.8873
Pd 8.9713 16.0534 18.1844
Au 17.2229 14.2715 9.61533
Au 20.5466 17.9234 18.048
Au 25.1727 12.0083 13.7611
Pd 20.2972 13.4715 7.62135
Au 11.87 11.1138 12.4447
Au 28.1921 33.1885 19.159
Au 29.3701 7.45721 15.4864
Pd 30.3534 18.6778 23.8139
Pd 30.8634 17.9332 21.1529
Au 31.3446 19.7272 16.9757
Au 28.4966 19.5974 16.6895
Au 17.3613 14.5198 33.0431
Pd 29.5194 16.2575 23.0358
Pd 21.9775 23.5681 10.8983
Au 17.2659 18.269 28.9547
Au 24.4361 26.2028 32.486
Au 19.4244 9.15867 17.6664
Au 8.75908 21.3128 27.8028
Au 34.1687 20.5769 22.7796
Pd 8.44979 16.1995 23.0801
Au 30.3585 8.7389 17.8449
Pd 18.3476 31.1597 19.3768
Au 16.2561 26.8151 24.1485
Au 29.149 10.0933 15.8507
Pd 19.5549 14.0529 16.3577
Au 26.1199 19.4637 14.4953
Au 17.1565 13.8796 25.7922
Au 25.9411 18.961 30.0559
Au 32.9452 18.3099 23.9624
Pd 21.9692 24.2954 21.2092
Au 21.7106 31.6131 13.1683
Pd 25.5811 25.2572 21.9603
Au 33.0466 22.2302 20.1478
Pd 19.2688 14.3776 30.8933
Pd 30.5006 26.0068 17.2554
Pd 20.7209 10.2792 11.9376
Au 7.89276 23.0469 20.5902
Au 31.8413 25.7718 24.0245
Au 15.7127 20.5602 20.2298
Pd 18.3101 14.2389 19.0203
Au 16.8225 10.8324 28.544
Au 27.3884 30.6296 18.3873
Pd 25.2569 30.9865 16.6116
Pd 24.88 17.6688 23.2301
Au 17.5884 7.29724 22.6598
Au 21.4716 24.6747 18.5019
Pd 17.043 29.0927 22.8437
Au 15.3124 16.0051 25.1882
Au 11.4265 15.722 22.6523
Au 19.7964 15.4608 33.671
Au 7.07264 26.9592 24.1672
Pd 20.8567 14.4502 13.907
Au 28.0212 14.5601 24.673
Pd 15.1628 12.1378 16.739
Au 21.4042 12.1391 30.9151
Au 29.6106 30.6164 14.3653
Au 10.895 12.3988 23.1428
Pd 30.2446 22.2387 20.8937
Au 23.5694 26.509 18.148
Au 27.3075 18.231 12.0437
Au 9.41079 15.2539 29.5811
Au 27.9595 29.377 23.2015
Au 31.113 22.2215 18.1688
Au 21.2776 27.2563 17.1358
Au 22.362 11.1611 9.69807
Pd 13.2549 21.2211 11.3813
Au 14.9073 23.0707 10.2037
Au 25.7109 16.146 29.5251
Au 33.6031 18.0476 21.4062
Au 27.2211 21.2 12.3888
Au 22.8891 13.6102 18.3996
Pd 29.5565 28.6858 18.003
Au 32.1816 15.9417 22.5477
Pd 32.0168 13.4162 18.5182
Pd 22.55 14.9142 6.72589
Pd 30.1439 9.48225 13.3838
Pd 24.7614 18.0817 9.12371
Au 23.933 23.5145 32.1266
Pd 18.6894 13.6035 12.0529
Au 26.8996 19.6942 9.79883
Au 11.4319 22.3152 31.3121
Pd 31.6218 19.1857 14.2986
Au 22.1925 29.4341 27.0191
Au 19.156 24.8215 20.6647
Au 25.7825 6.29722 17.0092
Au 27.6243 24.7552 9.66898
Au 9.05247 20.8141 25.1607
Au 26.0582 29.1842 28.9879
Au 27.1937 12.9521 7.67524
Pd 12.504 22.908 17.588
Pd 9.28762 18.069 13.9075
Au 18.3328 6.87489 27.4427
Au 30.0395 17.0811 10.2656
Au 20.4012 17.7516 10.1711
Au 26.1178 16.4185 25.4516
Au 16.9751 22.3085 8.49583
Au 24.9562 13.714 6.37824
Pd 21.2936 12.9797 11.6582
Au 19.6021 11.0283 22.1604
Pd 18.9623 15.8076 26.3682
Au 29.9533 21.7202 15.729
Au 8.15808 24.6335 16.0554
Au 24.4831 31.1792 13.5597
Au 21.8751 21.9841 8.63103
Au 18.8149 9.09744 29.0617
Au 31.6202 13.4762 21.2539
Au 20.1331 27.0205 25.5896
Au 17.4755 33.8552 22.6691
Pd 23.9113 23.7227 16.2603
Au 13.2744 13.5554 12.3008
Au 23.806 27.8113 28.5256
Au 17.7966 22.3511 20.9657
Pd 7.47026 16.885 29.1157
Pd 29.47 12.764 16.7868
Au 18.9147 30.2733 29.7211
Pd 11.4745 20.1239 24.1903
Au 9.0855 16.0568 26.9282
Au 13.0578 22.2936 28.6912
Au 10.6151 29.0123 21.2464
Pd 24.8295 9.8614 9.26574
Au 11.2199 31.703 21.432
Pd 23.382 29.0009 16.7488
Au 23.4326 31.7062 21.0601
Au 17.2417 25.2403 34.0385
Au 21.9755 12.8452 15.8838
Au 12.4452 20.3966 33.076
Au 31.0519 10.9853 19.3711
Au 25.9693 28.0083 22.0009
Pd 17.0946 11.7729 10.5328
Pd 11.1643 20.601 17.713
Pd 10.1935 27.9912 23.8232
Au 20.9394 28.5683 22.0026
Pd 16.9738 27.2166 10.4063
Au 18.6018 9.54096 24.1472
Au 17.1641 22.5111 34.0827
Au 23.1942 8.04538 10.023
Pd 28.8351 12.0011 24.1609
Au 21.8083 33.7256 22.0311
Pd 10.9989 20.5909 29.1546
Au 19.8117 17.7161 5.22159
Au 15.2838 17.8869 20.5717
Pd 20.2882 16.8915 31.5235
Au 29.3808 25.684 14.6505
Au 21.7893 14.5969 31.9746
Pd 22.4725 11.7013 13.5861
Au 14.0621 9.71196 28.6741
Pd 23.6318 9.17152 20.2545
Au 12.7987 27.4914 28.7352
Au 10.7406 11.059 27.7494
Au 21.5867 26.1079 23.3201
Pd 18.0656 10.5614 12.6206
Au 27.3728 26.9162 15.7692
Au 24.1815 14.1456 22.7838
Au 12.1837 30.2246 27.9099
Au 16.4372 22.7111 24.6132
Au 24.9671 10.9202 22.1028
Au 26.7631 18.2914 7.23835
Pd 22.8045 22.2312 18.5876
Au 10.9619 11.0746 18.85
Au 17.3689 19.6336 8.66856
Au 13.2312 27.0214 17.1115
Au 28.9431 17.0043 25.8335
Au 29.7336 24.2654 27.1036
Pd 26.0841 23.0023 27.7293
Au 22.7408 26.712 26.1629
Au 20.0064 22.0067 12.222
Au 19.0454 6.08932 20.6159
Au 21.529 15.8032 27.0092
Pd 26.9454 8.4037 15.7316
Au 7.78425 18.1165 24.8044
Pd 5.77354 22.6148 22.1465
Au 20.3128 22.7408 27.8226
Au 21.8945 20.9449 29.0669
Pd 20.5672 31.6106 17.7372
Au 30.4637 21.5153 26.7289
Au 16.2729 20.5111 6.34858
Au 16.2484 8.06923 28.7835
Au 24.7891 20.8345 19.7915
Au 19.7838 26.094 9.94503
Au 33.3749 25.6336 17.0882
Pd 13.6203 21.8377 24.3217
Au 9.23532 27.0277 26.2065
Pd 23.9466 23.1173 29.3262
Pd 15.9622 7.75862 20.4787
Pd 18.4327 27.5834 29.1951
Pd 19.6387 15.0535 21.5967
Au 19.6724 11.925 9.8835
Pd 6.37406 20.1224 26.2717
Au 13.269 8.08636 15.6593
Au 16.9798 24.4428 16.5507
Au 16.6673 8.33023 13.4319
Au 26.3642 24.3259 14.9489
Au 15.6484 10.6209 8.53454
Au 30.5107 14.2089 10.9514
Pd 28.0641 26.4921 18.4138
Au 12.4365 11.3158 21.1757
Au 20.7126 26.8465 19.9428
Pd 25.1773 25.4599 28.4174
Au 30.2536 15.5611 20.1705
Pd 15.0354 21.0159 13.5641
Pd 25.2173 11.0298 6.8853
Au 14.9858 30.1025 13.0304
Au 25.6346 13.1628 28.4272
Au 24.4462 26.6333 15.4292
Au 19.7427 20.9842 22.4212
Au 20.6891 20.7717 17.6262
Pd 19.3819 20.9312 33.5754
Au 29.4248 13.1326 19.3942
Au 13.3119 11.7477 7.98676
Au 15.638 27.4001 12.7038
Au 32.067 13.6238 13.0724
Au 24.6547 16.6929 6.45624
Au 33.4118 25.1278 21.6831
Au 19.6451 12.1127 14.153
Au 35.0325 20.0874 20.3115
Au 23.6357 30.5671 29.1352
Au 17.5148 16.4961 30.9809
Au 20.0193 9.02179 26.6669
Au 22.9258 19.3823 18.3296
Au 9.43459 24.0419 18.5299
Au 10.1341 17.8963 29.2212
Au 7.36343 14.7024 25.306
Au 29.9781 17.4902 15.754
Au 10.7593 19.2195 26.7394
Pd 21.238 17.0905 20.6539
Au 18.8803 23.3955 18.2446
Au 20.7311 8.94743 9.49767
Pd 31.0313 24.3354 13.0651
Au 15.8691 18.4441 12.8885
Pd 14.8883 25.8425 30.6302
Au 15.5689 15.9528 7.87517
Au 10.635 17.1982 9.17427
Pd 23.5665 29.2476 22.1793
Pd 20.9217 9.98271 20.0847
Au 30.4303 26.9693 19.9173
Au 15.6024 17.9819 9.98278
Au 9.04762 15.1013 13.8532
Au 10.0821 12.2462 14.2834
Au 24.9453 17.3149 13.4261
Pd 20.7329 19.6433 20.2696
Au 26.6659 17.6006 16.7275
Pd 27.1693 21.7741 15.6692
Au 13.9003 18.7922 14.6214
Pd 20.9205 30.9011 20.3489
Au 18.2182 26.498 18.5682
Au 31.6283 17.4157 18.4284
Pd 22.2331 28.756 24.4464
Au 27.0251 21.1588 23.5027
Au 23.4125 23.8867 23.5132
Au 34.3249 17.8179 18.7438
Au 13.7759 24.7369 8.49243
Au 19.4107 21.6821 7.44252
Au 13.3632 12.5256 18.9185
Au 7.22297 12.9436 20.3523
Pd 26.4845 22.401 9.93758
Au 30.0009 31.1433 19.1359
Pd 11.902 26.5485 21.9678
Au 22.2771 9.32607 17.8276
Pd 12.0163 29.9603 23.6798
Au 16.9361 9.99888 21.7698
Au 11.7896 16.7995 27.1379
Au 27.7787 7.82682 18.2406
Au 19.9594 23.7215 22.9638
Au 11.8927 12.4457 10.0763
Au 33.3017 27 19.4943
Au 17.9974 16.8838 9.08761
Au 24.4992 11.3182 18.5026
Au 31.9229 16.119 12.0975
Pd 31.688 20.2888 22.0594
Au 10.9035 27.0727 30.7104
Au 11.6605 17.0453 13.3524
Au 24.2042 9.19657 24.4649
Au 21.4606 31.1364 23.02
Pd 19.9186 29.1115 18.4344
Pd 27.221 16.8772 9.56275
Au 13.231 17.2243 8.86871
Au 22.3042 16.9719 13.8238
Pd 20.2813 25.8896 30.585
Au 28.9118 19.8984 21.9198
Pd 27.1595 26.6813 24.0965
Au 19.6471 26.3754 33.3798
Au 26.6788 33.2565 16.909
Au 28.8191 13.9032 21.9931
Au 19.9889 6.51036 18.1069
Au 12.2345 8.92166 19.8268
Au 15.8912 14.1862 23.2069
Au 15.1343 26.6901 33.0904
Au 22.2685 10.1398 22.6152
Au 23.2832 18.5773 30.0396
Au 10.3162 18.7431 11.2736
Au 10.1851 25.1481 14.3006
Au 21.3775 25.4396 12.6389
Au 11.5347 15.0335 18.0003
Au 17.4212 27.9441 33.4017
Au 15.3901 19.7783 25.079
Au 17.0677 26.6635 21.1308
Pd 32.1521 20.7809 24.7087
Au 31.6284 11.0919 16.7778
Au 18.7897 11.6573 30.3602
Pd 17.0684 29.0222 18.1134
Au 11.7347 25.6475 24.5274
Au 27.5675 28.8519 25.9444
Au 19.0821 32.247 12.396
Au 24.0179 16.2411 31.5567
Pd 14.1874 16.4573 22.6698
Au 24.85 15.1629 8.61383
Au 29.2512 24.6454 24.3719
Pd 16.2246 22.0592 18.0152
Au 15.3 30.3494 15.8328
Au 11.1146 8.78396 17.3385
Au 16.763 29.7141 28.3292
Pd 17.9094 20.5462 13.5017
Pd 26.2325 11.4192 11.2315
Au 13.2627 20.1438 26.7057
Au 17.7024 26.1425 31.4276
Au 21.1911 24.276 25.4763
Au 11.7616 12.6641 25.6711
Au 28.3557 12.9037 12.2717
Au 16.0378 24.8561 12.0066
Pd 18.7067 27.9568 16.2671
Pd 13.9719 22.5792 19.746
Pd 9.75589 20.6432 15.1658
Au 32.6582 21.4743 15.3501
