923
Atoms. Timestep: 20909
Au 16.6049 12.3901 30.2573
Au 16.3355 26.9282 23.9458
Au 22.0736 10.8615 15.8662
Au 15.4785 25.0201 6.66541
Au 17.4867 23.5017 5.59214
Au 12.166 12.9254 27.1008
Au 10.2041 26.0455 29.8608
Au 14.5014 12.4053 25.5902
Au 12.796 17.3955 12.5598
Au 13.0315 32.0553 19.6953
Au 16.5022 10.172 25.6058
Au 6.98812 22.0364 19.2834
Au 7.1037 26.8277 17.3713
Pd 17.5186 16.7778 22.5256
Au 27.785 23.3219 10.3101
Au 31.0419 18.5958 14.4792
Pd 13.7416 15.0046 26.2035
Au 13.9307 23.5357 32.5215
Au 24.6596 29.7683 28.0809
Pd 17.5457 17.0169 19.8075
Au 10.8994 19.0073 17.6398
Au 29.9223 17.9646 21.1729
Pd 29.5534 15.8281 19.5656
Au 17.4111 17.3636 25.3813
Au 25.6367 15.7819 29.6628
Au 14.2498 29.4887 10.9008
Au 12.235 22.7837 19.2753
Au 29.9969 25.2872 14.6909
Au 22.4714 23.2579 31.5501
Au 15.9285 29.8235 29.0134
Au 11.9689 27.9509 17.3879
Au 17.9835 16.5204 17.1487
Au 6.55741 24.0199 23.8694
Au 16.8738 17.8469 30.4219
Au 16.4702 21.8752 17.0239
Au 28.4738 23.0604 27.9477
Au 32.1628 24.6616 20.9439
Pd 23.3898 16.4572 31.3794
Au 31.2495 26.904 16.774
Pd 24.6089 11.5716 30.0247
Au 18.4591 14.5111 31.3057
Au 21.3905 23.2539 26.5712
Au 25.7684 10.0817 23.89
Au 9.98299 17.1432 15.4766
Au 20.4851 8.82274 14.7619
Au 10.996 15.0856 19.5429
Au 14.0397 12.357 31.082
Au 9.09443 21.7781 14.9515
Au 24.6231 27.1783 29.3402
Au 27.2639 24.7409 23.1253
Au 5.93753 21.9099 21.978
Au 22.1272 8.01723 16.8331
Au 21.1408 14.9423 22.438
Au 13.1738 10.6746 23.8266
Au 22.4956 22.6758 23.716
Au 17.9777 5.53575 22.2488
Au 23.3063 22.2993 18.2065
Au 19.8078 31.5343 21.0024
Au 19.0745 26.7869 10.7685
Au 27.1355 28.3667 11.4394
Au 7.44629 22.7351 26.277
Au 25.6597 20.8909 21.5851
Pd 28.71 19.869 13.7563
Au 22.8214 26.1681 31.1476
Au 23.0311 15.3594 17.9575
Pd 19.2235 24.7669 7.25041
Au 17.9059 19.3853 16.6202
Au 18.2772 22.8599 15.233
Au 19.9354 31.7313 26.0149
Au 29.4826 12.1375 16.5469
Au 26.1044 20.7357 26.7367
Pd 9.32176 12.9334 25.8836
Pd 29.794 28.8117 20.5383
Pd 16.8633 21.164 28.2132
Au 15.1515 23.4389 4.33824
Pd 23.4881 18.5914 29.9454
Pd 19.4395 11.8143 9.03348
Pd 26.6729 13.3645 15.5042
Au 30.2505 17.6842 29.2877
Pd 26.5402 27.7929 27.5493
Au 22.7897 13.6648 26.5952
Pd 21.4271 18.8439 24.826
Pd 16.4303 24.8353 16.0045
Au 32.9701 22.7641 22.719
Au 28.5181 10.5714 12.4024
Au 19.8301 16.7122 23.9605
Au 20.1539 17.2244 11.542
Au 33.3537 15.0702 16.8437
Au 23.9277 24.6257 33.2058
Au 13.54 20.2694 8.06527
Au 13.522 18.595 34.0569
Au 33.4962 22.7059 19.6512
Pd 9.62354 26.042 18.0176
Au 28.9625 20.4116 11.0159
Au 14.771 11.9297 9.25368
Pd 22.7339 28.8787 14.5349
Au 33.805 18.2993 22.9509
Au 23.6801 25.2147 10.3436
Au 13.613 11.9866 11.6333
Au 19.8787 29.3035 11.1959
Au 7.47547 17.1885 24.2797
Pd 28.115 27.6055 18.6199
Au 24.3977 7.37591 12.5564
Pd 6.07098 19.6361 20.3918
Au 12.8601 19.1505 19.8634
Au 10.5558 10.7043 25.109
Au 9.69671 13.9143 28.3138
Au 19.7771 7.06616 26.1341
Au 28.47 10.7315 19.2574
Au 25.6912 13.7694 25.2902
Pd 27.408 18.3329 10.3227
Au 9.90455 26.7892 27.2323
Au 17.8918 5.58083 24.8801
Au 20.6545 32.9673 16.5182
Au 16.732 7.45123 26.3554
Au 7.98885 25.9323 12.6421
Pd 22.7284 22.8722 8.91897
Au 21.4527 13.8213 19.9511
Au 24.238 14.0163 20.0823
Au 28.2799 24.7788 12.5401
Au 22.987 27.3243 8.30286
Au 14.4819 8.71799 27.9002
Au 29.8308 28.8406 23.2886
Au 26.2185 26.5383 13.3769
Au 11.8637 15.9412 8.42206
Au 24.1785 29.4896 19.8463
Au 14.545 10.9192 15.2702
Au 15.4667 11.2202 27.8908
Au 26.1198 25.6126 17.23
Pd 13.8472 21.5437 12.7144
Au 19.8391 19.4027 8.44595
Au 24.5658 17.0861 13.6318
Au 12.9173 19.549 5.54568
Pd 21.6981 30.4151 19.152
Au 26.1076 9.25891 19.1817
Au 21.533 10.5777 25.7185
Au 32.7762 25.0485 15.553
Au 9.46616 27.5681 24.5852
Au 15.4689 18.6657 20.7826
Au 15.2785 19.8619 29.9712
Au 7.87092 17.9894 21.6141
Au 15.3785 29.5464 23.6665
Pd 25.0944 16.7552 19.609
Pd 29.1616 18.9639 24.0171
Au 17.1907 11.3446 10.5652
Pd 22.0924 12.9748 29.0709
Au 30.3299 23.1132 29.8437
Au 10.1817 17.4425 12.7884
Pd 8.70595 15.5359 20.9309
Au 14.3956 7.76413 20.1129
Au 32.1337 16.3607 13.099
Au 19.9131 14.7142 12.5623
Pd 20.3524 25.8063 18.1583
Au 10.0891 27.193 11.0465
Au 24.9568 21.8495 13.8864
Au 13.2536 23.3658 7.52402
Au 29.325 26.3508 24.16
Au 11.4814 18.5192 7.58738
Au 21.8462 33.1993 21.8978
Au 27.578 27.3443 15.7052
Au 28.4434 15.8818 11.0594
Au 20.2195 21.368 24.7918
Au 10.447 11.2275 27.849
Au 19.2944 25.6793 15.2025
Au 21.0053 30.2958 16.4202
Au 10.0417 17.0496 23.0477
Au 20.2808 27.4061 28.2273
Au 22.3637 30.4983 21.8668
Pd 18.7711 24.4965 20.2182
Au 21.603 23.5669 6.39687
Au 26.4637 25.8745 10.6577
Au 15.4098 18.51 9.089
Au 21.8119 15.5262 7.42562
Pd 27.3296 21.9216 12.637
Au 19.9309 22.339 31.9216
Au 20.2438 6.21032 23.6037
Pd 13.9419 14.0005 23.4735
Au 24.483 6.76585 15.2324
Au 25.8377 28.5129 17.7173
Pd 27.8589 14.3637 29.0979
Au 22.9521 16.2277 11.353
Au 19.7408 12.313 30.3727
Au 19.2648 19.5937 32.5655
Pd 11.3277 21.274 7.00196
Au 15.5297 31.0235 26.3254
Pd 9.35452 16.7323 18.0006
Au 16.5245 12.2899 23.5938
Pd 18.5641 17.315 34.1141
Au 10.2817 17.7818 20.2457
Au 28.418 18.8604 30.9521
Au 26.0149 9.48548 13.0645
Pd 18.9247 11.4982 24.5986
Pd 33.3981 17.3072 15.2412
Pd 15.8657 10.0943 20.2707
Pd 12.6292 20.5596 30.0454
Au 19.8522 12.9256 14.6015
Au 14.4361 9.81069 17.8114
Pd 21.1923 33.1312 19.1909
Pd 17.0347 23.8092 28.5523
Au 18.7679 34.072 18.3006
Au 15.1931 8.4422 13.7463
Au 13.264 29.3821 19.2902
Au 14.339 26.4342 16.8389
Au 9.53782 23.6222 19.2982
Au 13.6061 22.3253 10.0452
Pd 33.1864 13.319 18.9708
Au 22.6201 29.5053 11.945
Au 17.5036 32.4668 25.0848
Au 16.4926 19.2086 32.797
Au 28.7073 25.9213 26.8109
Au 20.9389 27.7046 23.4975
Au 31.0791 25.4194 12.0208
Au 32.0643 19.0252 17.0598
Pd 18.8339 14.7149 20.7254
Pd 31.5155 19.6871 22.5897
Au 25.9233 14.5928 17.8765
Au 8.17557 15.4611 26.4697
Au 20.669 30.4544 13.5985
Au 11.2303 18.0201 10.1937
Au 31.5954 24.8028 23.8515
Au 9.80229 27.7311 13.7203
Au 13.0067 26.1396 7.6653
Au 30.0991 17.9776 26.5388
Au 13.772 19.0462 27.9751
Au 22.3453 30.8661 27.0746
Pd 15.5766 28.6671 13.0108
Au 18.8497 26.8528 25.2738
Au 26.4371 13.4155 31.0322
Au 11.677 9.75854 17.9225
Au 15.9603 10.906 12.9661
Au 15.9015 17.6427 34.9172
Au 26.9669 30.4704 26.8485
Au 15.064 33.6001 18.527
Au 28.6413 12.9257 11.1334
Au 24.0705 21.654 11.1368
Au 15.4966 25.1372 30.5489
Au 9.22036 28.4603 21.9409
Pd 24.6374 18.3497 9.83346
Au 32.9194 20.4246 10.6763
Au 9.92639 12.8276 14.7656
Au 21.9583 8.40739 27.388
Au 19.6373 8.34039 28.8726
Au 20.7458 23.3832 21.7862
Au 17.1492 14.8764 14.9799
Au 25.2571 30.1605 15.4739
Au 8.36068 19.2827 19.0476
Au 23.0742 21.8872 20.9891
Au 18.6078 13.7262 17.071
Pd 19.488 18.7991 18.9906
Au 24.1584 9.15819 25.8841
Au 13.3325 8.15256 22.5272
Pd 22.6414 16.2265 20.6236
Au 15.0933 13.338 13.7571
Pd 20.1192 19.9262 11.5796
Au 27.4384 27.0337 30.0133
Au 19.7636 21.419 34.5951
Pd 9.32342 25.8944 20.9214
Au 21.8841 10.8029 10.3205
Au 29.5044 15.5131 27.4286
Au 30.3038 24.338 9.56895
Au 20.2373 16.0469 18.7553
Au 21.043 10.0774 21.1049
Au 8.87157 14.704 12.7703
Au 11.2239 21.5443 24.0356
Pd 20.674 20.6199 22.2092
Au 17.7459 7.52967 14.5125
Au 14.4328 8.40432 25.2035
Au 8.38313 20.7794 21.3965
Au 24.2549 14.9675 15.5319
Au 31.2174 20.142 25.3808
Au 12.5483 16.9646 18.1812
Au 24.9844 23.5695 22.0123
Au 9.58823 24.4729 10.887
Au 13.3132 14.5415 15.4566
Pd 31.5503 21.4832 18.1843
Au 26.7195 23.5501 25.8979
Pd 25.9987 11.2711 26.3877
Au 24.2136 21.8786 33.4849
Au 23.8688 14.871 9.2357
Au 26.5188 26.3693 25.165
Au 30.0216 23.7045 19.243
Au 20.2463 18.0978 16.4867
Pd 20.3674 28.826 20.9547
Pd 17.8087 23.7969 31.1653
Au 24.6201 10.0733 21.3475
Pd 25.7242 23.0503 31.651
Au 14.3 17.7863 31.5779
Pd 12.8721 10.3386 26.4731
Au 12.1698 17.6186 29.9073
Au 33.5446 20.6207 24.2365
Au 27.0801 18.7797 20.0661
Au 17.1785 21.4408 24.3189
Au 8.93122 19.4369 10.8262
Pd 32.8682 18.0647 25.5782
Au 22.2815 13.3048 11.564
Pd 12.4914 12.4305 14.0619
Au 13.7938 28.6421 30.3927
Pd 19.4062 7.85544 21.6495
Pd 27.467 17.5971 13.0134
Au 12.6789 13.7249 9.76257
Au 16.4475 17.7875 15.0426
Au 21.7924 27.3968 10.6163
Pd 31.7618 27.1406 14.0684
Au 24.1429 9.9825 17.3932
Pd 19.8142 28.6057 18.2805
Pd 15.5413 25.9006 13.7107
Au 22.8934 18.9038 11.8112
Au 16.6324 8.23134 18.385
Au 21.8333 20.8223 6.91804
Au 25.3399 9.57428 28.3753
Pd 31.8428 23.426 13.7249
Au 29.7074 18.3543 18.3615
Au 15.8877 23.1436 13.8425
Au 19.8863 12.3656 21.9737
Au 25.566 26.4502 8.28904
Au 11.1508 27.6449 20.0135
Au 11.3256 28.8487 26.2114
Pd 25.1498 13.5643 28.0975
Pd 29.3954 22.4669 14.3913
Pd 10.6064 20.7545 19.6938
Pd 11.563 24.7235 27.8928
Au 29.401 23.7424 25.2222
Au 27.1689 28.2732 23.3307
Au 23.9963 21.0983 30.8085
Au 30.3759 21.962 23.4943
Pd 21.0207 17.5219 29.3996
Pd 24.9711 15.5603 22.124
Pd 28.4408 26.7581 21.5377
Au 15.2925 7.26944 16.1724
Pd 10.7628 15.2056 25.9774
Au 24.5127 27.2253 15.5913
Au 31.8987 21.1595 15.2239
Au 20.197 30.1243 28.5377
Au 33.764 14.0697 21.5275
Au 26.6899 30.9063 24.0823
Au 27.3292 24.2662 15.0404
Au 26.5461 25.114 28.3096
Au 24.8455 7.29211 20.7025
Pd 19.8336 17.6969 26.7958
Pd 12.514 20.5511 26.2497
Au 19.6536 21.985 5.60153
Pd 31.0736 26.8272 22.0664
Au 27.6295 22.7928 20.7818
Au 26.0242 8.85637 15.8779
Au 21.9326 17.6594 9.26141
Au 18.9146 19.1854 23.8603
Au 24.5271 14.2225 12.7646
Au 11.2418 20.7493 9.74071
Au 19.1377 28.6269 15.2904
Au 19.3241 34.1952 20.9284
Au 18.8075 24.158 10.1816
Au 14.7908 16.6138 22.7582
Au 27.1512 21.4556 15.4895
Au 17.8317 8.12869 24.0132
Pd 18.3668 21.3358 10.0394
Au 15.4066 5.81152 18.4486
Pd 10.9238 15.4904 11.0095
Pd 13.3947 14.4521 18.1676
Au 22.1319 6.66923 13.9561
Au 6.66284 21.4974 16.2263
Pd 6.6924 21.2688 13.4539
Pd 21.9459 20.4045 9.7213
Pd 17.2469 12.1092 15.1626
Au 30.5702 20.3577 30.0193
Au 12.0311 28.7506 12.3683
Au 30.8577 11.8071 18.9295
Au 14.7037 12.3148 19.1681
Au 9.61511 20.6888 26.1808
Au 11.1662 15.136 13.9765
Au 27.9515 13.1275 26.7264
Au 13.0292 8.67218 15.5939
Pd 12.8708 23.2223 25.9547
Au 20.7248 15.8879 33.4542
Au 25.4804 12.6535 22.4844
Au 27.1832 14.8232 13.1876
Pd 9.24718 19.8417 8.18652
Au 14.0393 21.3443 24.1288
Au 12.6586 12.1292 16.7908
Pd 25.5923 23.9084 12.1331
Au 24.262 24.2982 29.6707
Pd 10.4585 22.6197 21.6948
Au 17.1956 8.65773 11.9071
Pd 15.308 22.003 6.56141
Au 22.6283 13.0918 14.4926
Au 28.9991 25.4737 17.2126
Au 20.6231 15.0988 28.1551
Au 23.2202 25.1403 17.3628
Pd 12.434 16.197 24.1051
Au 24.3258 32.0654 22.9819
Au 11.0938 10.476 15.3154
Pd 24.9853 28.9186 13.088
Pd 14.2286 29.316 16.43
Au 25.6796 16.3471 11.2706
Pd 17.8202 20.9326 7.33286
Au 33.4146 19.0263 13.1574
Au 22.186 25.508 28.4184
Pd 23.4799 11.2281 27.5491
Au 7.6558 26.3228 22.93
Au 21.384 10.8825 13.1656
Au 22.6975 12.4339 22.1128
Au 9.92176 20.6336 30.4854
Au 15.5443 13.9557 10.8999
Au 20.0042 6.1866 15.4532
Au 10.9823 14.6039 22.311
Au 35.1728 16.2509 21.8654
Au 19.2388 16.638 8.91701
Au 21.3458 12.9735 17.3496
Au 24.4625 24.5253 24.5091
Au 23.7097 24.9088 7.34264
Au 15.2889 9.99141 30.3011
Pd 30.7351 21.6498 27.5735
Au 22.9593 9.53492 29.6909
Au 15.3591 27.2128 28.7181
Au 11.8258 12.0752 21.9366
Au 20.7729 15.292 16.1387
Au 15.1604 32.267 23.7612
Au 30.9548 28.0676 11.7313
Pd 18.1781 13.8732 28.6217
Au 22.5476 5.47145 16.596
Au 17.9775 26.8095 17.3251
Au 23.1083 11.5681 19.4981
Au 24.3847 25.9214 26.8446
Au 29.6443 25.6901 29.2831
Au 12.3231 27.9616 9.66901
Au 23.1258 15.7985 28.689
Au 24.1543 16.0471 26.1777
Pd 16.3057 15.3975 27.2625
Au 13.0805 7.33469 17.8991
Pd 22.0548 25.3962 14.7003
Pd 6.39805 19.5476 23.1558
Au 34.4852 15.5858 19.3659
Au 22.7072 6.01492 19.3314
Pd 22.2048 7.60926 24.8049
Au 11.4748 28.2674 28.9329
Pd 10.1055 23.3662 30.1978
Au 13.6837 30.3645 13.905
Au 16.7146 25.8251 26.7705
Au 32.4745 23.0456 11.0979
Pd 27.8045 24.2373 30.4888
Pd 18.3415 19.8927 26.3946
Pd 18.2431 28.4735 22.6719
Pd 9.80986 16.6516 28.3802
Au 22.1855 7.43929 21.8617
Au 11.2242 22.0507 28.1256
Au 14.1669 15.8942 33.5817
Au 18.6998 23.8858 33.8587
Au 19.5193 9.61737 10.9348
Au 21.5174 20.5407 19.2495
Au 22.1615 22.5149 28.9982
Au 10.836 24.1541 6.42336
Au 30.6466 14.3969 12.0561
Au 29.9134 28.7537 15.2521
Pd 27.6978 17.3578 28.8012
Pd 20.9357 25.1991 11.957
Au 14.429 16.5893 28.7209
Au 8.5045 21.6788 28.4918
Pd 23.9658 11.3474 12.4933
Au 21.7486 18.1673 6.57492
Au 17.0364 8.79792 28.5669
Au 13.2103 28.7446 21.9303
Au 8.26958 18.9655 28.3035
Au 13.9787 24.2255 12.1706
Au 5.76167 21.5934 24.6261
Pd 13.1599 24.9229 5.3007
Au 28.4523 28.6062 25.6705
Au 33.8186 20.6087 21.353
Au 17.1447 15.4883 7.14651
Au 20.3742 29.0275 25.9875
Pd 25.33 23.072 16.6304
Au 14.4828 21.1356 19.0171
Pd 25.8722 17.8478 31.321
Au 20.7492 27.5774 13.2632
Pd 16.1177 15.1404 30.1474
Au 13.8128 26.6143 19.764
Au 21.032 10.2217 18.3075
Au 20.0349 24.1095 24.4079
Au 20.8984 18.6342 34.5621
Pd 23.0382 8.78196 19.5451
Au 14.7308 20.8239 4.09201
Au 8.61295 22.0714 9.55662
Au 20.8393 20.3551 27.4977
Au 12.2797 25.2282 10.1781
Au 28.6759 19.888 28.2128
Au 18.6141 10.3598 13.5159
Au 27.4883 16.7415 18.1121
Au 18.5409 14.2014 23.4646
Pd 10.9324 23.2677 8.88849
Au 17.5558 18.1482 7.42995
Au 18.1199 19.3798 21.3978
Pd 15.5923 9.62617 23.0293
Au 15.5554 17.8516 11.8899
Au 25.6706 19.5814 12.2222
Au 16.5919 20.5845 14.5256
Pd 24.0925 12.7497 17.2172
Pd 30.8292 16.1428 9.98842
Au 10.1148 23.3917 25.8579
Au 8.47794 25.8826 15.3544
Au 17.2444 32.4086 19.9745
Au 13.6353 19.3907 16.8821
Au 15.7936 28.1559 18.5547
Au 28.6703 20.0344 8.27399
Au 15.3324 30.9403 18.4031
Au 10.9303 9.58442 22.5138
Au 29.6114 15.4017 22.27
Au 14.7978 16.278 19.7439
Au 19.6153 33.0758 23.468
Pd 14.6075 11.949 21.835
Au 7.16653 19.6455 25.8411
Au 8.81086 14.7869 23.918
Pd 21.095 13.1051 24.4357
Au 17.1574 12.8894 26.2634
Au 9.44207 12.2276 23.1486
Pd 16.8149 9.556 15.9017
Au 14.3956 24.5945 27.9707
Au 16.1273 14.5306 21.6759
Pd 19.0266 9.50422 26.4323
Au 20.2444 9.16702 23.8298
Au 34.0907 20.3531 18.4402
Au 13.5294 29.6038 27.7412
Pd 12.4733 16.8206 21.3456
Pd 17.3709 24.4539 24.553
Au 23.6491 32.2371 20.086
Au 17.0456 11.3421 18.0048
Au 18.3034 28.9485 30.1054
Au 25.0571 21.8007 24.4091
Pd 26.5864 28.523 20.663
Au 16.8424 34.9655 20.0449
Au 17.4369 15.9886 12.313
Au 17.357 22.2452 35.5763
Au 28.3825 13.406 18.6833
Pd 8.41533 27.9627 19.3913
Au 26.5913 16.2617 15.4532
Au 27.6668 11.986 24.1099
Pd 15.8393 21.1235 9.15036
Pd 23.8006 20.4881 28.1486
Pd 13.9692 26.9223 11.6115
Au 28.6715 14.5274 8.89627
Au 30.7373 23.3881 16.5146
Au 32.2391 12.3673 16.6406
Au 16.6548 22.8683 19.6832
Pd 27.5386 17.249 22.2516
Pd 25.3825 23.3978 9.15048
Au 6.09337 19.2994 17.674
Au 16.9675 13.0542 8.31121
Au 34.4559 17.7268 17.5983
Au 17.9508 27.309 13.197
Au 15.6299 6.65196 23.5186
Pd 28.7719 14.8708 16.3034
Au 24.5053 7.80509 23.2955
Pd 31.8507 19.3446 19.8637
Au 30.8262 18.9209 9.46456
Au 23.4672 9.12163 14.3364
Au 18.2191 27.097 20.0809
Au 8.94739 22.2153 6.88794
Au 30.1208 29.0952 17.8924
Au 23.8208 11.8465 24.7633
Au 16.333 27.8343 15.4711
Pd 28.6085 22.7175 7.9254
Au 14.8615 24.7675 9.33055
Au 15.6761 22.9616 26.1207
Pd 23.3592 29.3571 17.1928
Pd 12.151 17.3052 26.815
Au 16.6613 22.0451 33.0392
Pd 10.9772 19.6406 22.0495
Au 22.0469 15.7361 13.7809
Au 11.3674 20.0913 12.3811
Au 29.685 24.2911 21.9682
Au 27.4637 29.4415 13.9488
Au 21.889 20.6943 32.9629
Au 13.5124 19.0353 22.7335
Pd 13.0075 21.541 21.5796
Au 9.44991 17.8132 25.9914
Au 25.1722 17.9143 27.8827
Au 27.8359 29.992 16.5925
Au 33.5606 22.6288 16.745
Au 32.398 24.7622 18.2047
Au 17.7357 20.9236 30.8017
Au 22.0054 8.54562 11.9248
Au 29.0049 20.9253 19.1283
Pd 27.3702 18.3885 26.2028
Au 24.6516 7.24 17.8694
Au 25.997 22.3775 28.9655
Au 8.46853 14.8674 15.6383
Au 14.006 26.0414 22.5047
Au 24.2754 20.6371 8.49281
Au 12.8329 21.3329 34.3791
Pd 23.0349 24.7908 20.3065
Au 19.392 22.2572 29.0219
Au 19.1531 21.6527 20.1686
Au 10.373 26.1427 8.49293
Au 34.2684 18.1764 20.2325
Au 28.8978 17.2194 8.43182
Au 15.3121 20.4127 35.0082
Au 28.6906 16.349 24.8285
Au 17.2627 12.3295 20.751
Au 26.4995 12.2564 12.9511
Au 27.293 10.4324 21.6861
Au 15.3833 28.3104 26.1711
Pd 13.9826 26.359 32.3172
Pd 24.5506 27.8361 10.5817
Au 16.6049 16.3264 32.6216
Au 26.3091 24.041 6.79379
Au 29.1233 12.9728 13.9353
Pd 23.3249 20.0892 23.1862
Au 24.1068 22.3823 6.40647
Au 31.9263 19.2856 27.9285
Au 6.95281 16.9926 19.2591
Pd 32.3588 16.3804 21.4248
Pd 21.1747 20.2784 30.2819
Au 11.4892 29.3982 15.1353
Au 12.1723 25.188 18.018
Au 22.2792 18.7755 21.1564
Pd 23.7238 27.1796 24.2777
Pd 21.1854 14.9279 30.8721
Au 13.2124 30.5319 25.0665
Au 27.5918 22.1177 23.5003
Au 15.8387 27.9444 21.3281
Au 8.53329 14.2715 18.3545
Au 15.5904 5.52353 21.0581
Pd 8.5192 19.2796 16.2968
Au 20.6609 9.82046 31.0212
Pd 17.0249 32.5181 17.0097
Au 11.6517 24.9137 31.8983
Au 26.0954 12.1099 19.8245
Pd 20.0501 22.3801 8.3221
Au 14.8433 9.68302 10.9551
Au 17.9027 19.6381 35.1544
Au 11.5968 22.1459 32.1476
Au 15.4301 13.2499 16.6852
Pd 16.8106 7.88969 21.3373
Au 22.1113 32.3485 24.5193
Pd 9.12252 21.8473 12.2114
Au 22.8724 31.5002 14.8553
Pd 22.8072 20.9773 25.7826
Pd 9.51631 12.9769 20.5121
Pd 13.0421 9.92935 13.192
Au 33.7294 21.634 13.186
Au 20.3766 27.3806 30.9521
Au 29.0619 28.169 28.25
Pd 24.3029 19.5283 19.423
Au 16.3358 23.1089 11.0865
Au 18.3335 23.9435 17.7055
Pd 8.9899 19.4665 23.7987
Pd 27.85 16.0559 31.172
Au 7.18555 23.7171 14.3264
Au 10.8703 19.2981 28.2253
Pd 11.508 25.7342 25.2559
Au 8.7318 19.4706 13.6201
Au 8.80875 24.4004 28.0778
Au 16.1583 15.0147 24.5987
Au 17.7592 29.7433 20.0539
Pd 24.6374 24.6802 14.6386
Au 18.0368 10.0279 30.7658
Pd 12.1277 15.2119 28.4879
Au 10.3521 23.7891 16.4365
Au 14.3811 32.1296 16.1669
Au 7.64696 16.8555 13.8688
Pd 28.6941 17.9236 15.7513
Au 24.5964 31.5249 25.7224
Au 31.1855 20.6602 12.6218
Au 16.6881 14.448 18.8724
Au 25.3142 23.8953 19.2824
Au 13.4407 27.5404 14.4115
Au 18.1751 18.8367 13.1085
Au 25.4883 15.4197 32.5455
Pd 11.6968 13.116 24.508
Au 26.4223 16.0949 8.6821
Au 26.6547 11.3423 17.3081
Au 16.1678 20.4473 11.7734
Au 18.1662 24.584 12.8967
Au 17.8761 31.0837 27.6002
Pd 19.3834 24.995 27.4011
Au 16.1874 27.6954 31.3135
Pd 19.7667 12.2141 11.5829
Pd 14.9159 23.0418 34.8697
Pd 18.4174 16.4932 28.7484
Pd 13.0206 10.9005 29.0288
Au 20.8925 22.5913 11.0264
Pd 16.1657 25.4217 18.8594
Au 18.8572 15.105 26.06
Au 15.748 18.258 17.9978
Pd 18.8011 31.423 15.3261
Au 15.5308 19.3365 6.24263
Au 9.28707 28.2657 16.4726
Au 9.07899 21.5527 17.6236
Au 9.7047 18.0007 30.7432
Au 23.4148 14.4825 23.9394
Au 16.1149 19.023 23.5466
Au 19.1324 16.6514 14.4274
Pd 18.9022 19.2295 29.0768
Pd 15.1882 16.0034 16.7707
Au 27.0732 14.9946 20.513
Au 31.1274 21.8469 20.8843
Au 6.66503 20.9448 10.8556
Au 34.2331 19.9654 15.6799
Au 30.7527 21.6758 9.40296
Au 7.85689 23.6547 21.5248
Pd 18.1441 10.2672 22.2605
Au 25.3231 28.932 25.44
Pd 18.5919 9.63542 19.6333
Au 16.4679 25.9778 11.1443
Au 20.5787 7.69706 19.2958
Au 30.0912 18.0054 11.9198
Au 31.3818 14.2151 14.9252
Au 21.5791 25.9886 25.7119
Au 28.6734 20.3283 21.7523
Au 19.2309 17.0645 31.409
Au 11.3332 19.6111 14.9924
Pd 14.1495 21.8199 28.0834
Au 17.8253 28.3436 27.499
Au 14.8368 33.4036 21.2236
Au 19.5217 21.3865 17.4534
Pd 10.9238 14.6026 16.8261
Pd 8.41835 22.0697 23.8201
Au 9.94036 12.0626 17.4978
Pd 16.5211 25.2695 21.5957
Au 14.6923 14.7118 8.23689
Au 22.3237 25.2998 22.947
Au 20.1225 30.3943 23.5583
Pd 27.9176 30.3099 19.2149
Au 17.9637 26.2614 29.5318
Pd 23.8949 13.99 30.6776
Au 20.0136 27.4402 8.38849
Au 17.3873 26.2733 8.55314
Au 26.3751 18.6783 7.7108
Au 19.6321 7.46306 12.6381
Au 16.5151 18.262 27.7719
Au 30.9507 24.3357 27.3758
Pd 13.5708 19.5194 10.8148
Pd 21.0429 23.356 19.1258
Pd 13.2069 14.6454 12.2646
Au 17.9853 12.0925 32.5926
Pd 17.156 33.7664 22.5133
Au 24.1891 19.5057 6.16407
Au 13.4163 15.0549 31.0087
Au 14.9992 27.5211 9.11872
Pd 27.9588 25.2675 8.46031
Au 22.3262 11.8962 31.5197
Pd 11.8895 12.4576 19.2919
Au 15.8013 21.2263 21.7173
Au 29.5401 16.0399 13.9088
Pd 17.7777 29.7076 25.1131
Au 11.2323 26.2065 15.4918
Au 24.927 18.2439 21.9106
Pd 22.9037 17.1135 23.4238
Au 27.7653 10.7169 14.9325
Pd 27.2817 14.561 23.2717
Au 24.196 12.1487 9.86034
Au 23.1385 16.9063 33.9879
Au 15.1918 30.7022 21.1295
Pd 19.3007 10.9332 16.4034
Au 11.6559 12.9729 29.9283
Au 15.4501 20.1381 26.0834
Au 20.5053 23.2593 13.7992
Au 9.71432 24.6152 23.4185
Au 30.4597 26.4275 19.4487
Au 10.2212 29.7659 18.4755
Pd 24.8125 29.3851 22.6509
Au 14.4146 23.6289 17.6137
Au 14.1711 21.7373 15.5029
Au 21.2142 25.0812 9.07061
Au 26.4938 21.335 7.06034
Au 22.299 17.995 18.4408
Pd 21.1115 18.4483 13.8366
Au 22.7817 9.85569 23.289
Au 17.6435 5.97044 16.8661
Au 11.8032 24.9373 20.8513
Au 26.9804 11.7474 28.8784
Pd 11.5836 22.8863 11.7108
Au 6.63622 18.6741 12.1689
Pd 28.6397 21.0786 25.779
Au 20.4198 13.2063 32.9411
Au 29.5832 13.8298 24.7398
Pd 11.859 16.8091 32.4969
Au 9.8239 24.1559 13.6611
Au 23.5944 19.514 14.4634
Au 8.17782 25.3753 25.569
Au 21.4622 27.4051 16.3291
Au 11.8609 21.5311 16.9863
Au 20.0343 12.7085 26.8886
Pd 17.1147 20.2371 19.102
Au 11.0804 30.2942 20.9199
Pd 21.9241 20.2267 16.5394
Pd 28.1518 21.5562 30.4079
Pd 19.2688 31.4052 18.2763
Pd 19.7358 20.5534 14.7723
Au 7.80893 26.1554 9.98985
Pd 17.5763 13.1892 12.7032
Au 19.4815 14.1312 7.64535
Au 12.7743 22.312 5.04762
Au 26.5536 19.5166 23.8095
Au 11.8265 8.41448 24.7758
Au 14.3349 23.8609 20.6094
Au 17.8884 18.6296 10.3492
Pd 23.0115 23.6913 12.6503
Au 20.2555 24.6815 30.1568
Au 31.7863 14.1833 23.3101
Pd 6.27694 19.0329 14.8924
Au 31.1805 17.2009 23.6968
Pd 13.0993 10.2064 20.3996
Pd 29.5738 20.5299 16.4375
Au 22.9815 27.677 21.5546
Au 13.3748 14.2391 20.8793
Au 22.8566 28.1408 26.9115
Au 7.61112 23.9586 17.1402
Au 26.5438 20.9305 9.87473
Pd 24.6568 20.409 16.7616
Au 27.1963 19.4305 17.4386
Au 25.6428 25.7555 31.4752
Au 18.0704 6.1969 19.5777
Au 20.8117 26.1799 20.7825
Au 17.0696 23.4072 8.28342
Au 22.9264 14.3216 33.1079
Au 26.347 20.4376 32.1377
Au 13.7784 16.4468 10.1736
Au 18.2249 14.5608 33.9515
Au 32.1588 22.7162 25.464
Au 24.1567 23.1094 26.9825
Au 20.8598 10.6491 28.438
Au 12.2669 30.9953 17.2705
Au 24.3184 9.40083 10.7595
Au 14.1701 19.2089 14.0544
Au 20.449 5.44202 20.8744
Au 25.359 26.3894 22.1625
Pd 23.4658 26.6272 12.7837
Au 22.7558 29.7412 24.5266
Au 12.8739 23.3657 29.9911
Pd 26.2082 19.7612 29.4856
Au 20.0172 17.3047 21.2879
Pd 12.4703 23.8826 23.3132
Au 11.7575 25.8329 12.8215
Au 14.417 13.601 28.6131
Pd 8.38554 16.8091 11.061
Pd 20.9671 14.9587 9.97152
Au 22.0011 21.1415 13.12
Au 13.9097 17.3001 7.28178
Au 18.9296 25.8433 22.6741
Au 18.0607 22.9352 22.3411
Au 17.0216 28.6535 10.6948
Pd 22.372 27.5006 18.9066
Au 7.11916 23.5611 11.5346
Pd 24.9733 17.6865 17.1578
Au 24.0906 17.0981 7.50959
Pd 18.4159 21.8203 12.6603
Au 11.6402 8.0569 20.2001
Au 28.9743 27.3261 13.1879
Pd 14.9039 16.0634 13.8007
Au 32.1099 16.738 18.8042
Au 26.5111 10.9697 10.6385
Au 25.5316 31.1797 18.1212
Au 23.0509 32.0929 17.42
Au 24.3829 18.8092 25.3642
Au 26.2116 19.0088 14.9129
Au 14.5701 17.5387 25.4898
Pd 11.1652 29.5229 23.5636
Au 21.7792 23.1598 34.1882
Pd 21.5667 18.1701 32.0117
Au 24.0531 19.0958 32.7905
Pd 22.4948 18.1593 27.246
Au 20.23 5.41118 18.0168
Au 26.1356 21.4025 18.8908
Au 15.2221 23.5296 23.2263
Au 22.8961 22.5602 15.3854
Au 31.1531 13.8512 20.6484
Au 25.989 31.2774 20.954
Au 19.0821 8.26201 17.1011
Au 32.721 17.7712 10.9299
Au 30.9851 16.5538 16.3173
Pd 22.7388 17.3323 15.8406
Au 16.2021 30.6531 14.914
Au 12.7889 17.1819 15.4292
Au 28.5894 12.8088 21.4438
Au 12.9319 31.4902 22.4685
Pd 21.5766 15.8826 25.6732
Pd 14.2388 20.7357 32.3076
Au 20.8458 25.2256 32.7804
Au 10.9315 13.0131 12.01
Pd 27.9496 23.0119 17.5893
Au 11.6009 18.7502 24.5913
Pd 13.2382 27.8295 24.5231
Au 21.394 26.2015 6.51087
Au 25.914 16.7766 24.3397
Au 21.8889 12.922 8.58805
Au 15.7988 13.7796 32.5834
Au 20.8179 23.679 16.4995
Au 28.2491 30.4293 21.9478
Au 19.5385 16.5993 6.2564
Au 18.0124 30.0288 12.9998
Au 30.9284 14.298 17.8542
Au 29.1063 26.6238 10.4899
Au 11.6623 19.4338 32.2989
Au 17.2629 20.9513 4.72918
Au 22.3622 28.6764 29.5164
Au 26.2645 13.8256 10.3856
Au 7.18757 25.2674 19.4669
Au 19.3989 19.3212 5.72078
Pd 11.7446 22.3078 14.3272
Au 16.1821 24.8625 33.2376
Au 10.541 15.3588 30.6635
Pd 18.1708 11.1913 28.2867
Au 24.9239 26.6446 19.4853
Au 26.8051 15.674 26.8855
Au 17.4922 29.7496 17.1559
Au 10.2464 10.4422 20.0759
Pd 16.5675 16.1761 9.67629
Au 33.6651 15.8572 24.0096
Au 8.44849 24.3835 8.1903
Pd 15.4495 22.4747 30.4599
Au 18.366 14.1842 10.2305
Au 13.4263 24.4602 14.996
Au 31.5524 15.5776 25.7498
Pd 13.0609 26.9391 27.1477
Pd 19.4137 12.2274 19.1944
Au 17.5394 31.13 22.6388
Au 7.05209 16.9818 16.5709
Au 18.3114 26.2383 32.2663
Au 18.4848 22.666 26.4485
Au 12.9335 26.1574 29.8488
Au 14.3819 25.3729 25.21
Pd 29.9408 22.8506 11.7948
Pd 24.9135 11.3331 15.038
Pd 27.6186 25.1899 19.631
Au 11.3095 26.8432 22.7489
