923
Atoms. Timestep: 20110
Au 19.7545 19.7765 19.764
Au 22.0591 19.7916 18.3497
Au 22.0452 19.7885 21.1944
Au 17.4688 19.7565 18.3278
Au 17.4555 19.7627 21.175
Au 18.3343 22.0725 19.7504
Au 21.1785 22.0704 19.7511
Au 18.3338 17.4757 19.764
Au 21.1787 17.4902 19.7723
Au 19.7525 18.3635 22.0726
Au 19.7396 21.1916 22.062
Au 19.7529 18.3556 17.4707
Au 19.766 21.1913 17.4658
Pd 24.3479 19.7882 16.9454
Au 24.4104 19.8042 19.7642
Au 24.3278 19.802 22.6384
Pd 15.1974 19.7421 16.9045
Au 15.1047 19.7488 19.7346
Au 15.1567 19.7471 22.594
Pd 16.9153 24.3627 19.7415
Au 19.7531 24.4463 19.7443
Au 22.5917 24.363 19.7346
Pd 16.9227 15.1884 19.764
Au 19.7511 15.1153 19.7745
Au 22.6061 15.1947 19.7832
Au 19.7545 16.9596 24.3879
Au 19.7408 19.7747 24.459
Au 19.7346 22.5958 24.3639
Au 19.756 16.9437 15.1708
Au 19.7687 19.7567 15.0979
Au 19.7809 22.5986 15.1655
Au 22.0842 18.3547 23.5748
Au 22.0738 21.2122 23.5631
Au 22.1001 18.344 16.0037
Au 22.114 21.2243 16.0023
Au 17.4159 18.3248 23.5496
Au 17.4045 21.2006 23.5445
Pd 17.4423 18.3064 15.9941
Au 17.4398 21.1805 15.9832
Pd 23.5257 22.1125 18.3176
Au 23.526 22.1196 21.2014
Au 15.9953 22.0922 18.2966
Au 15.9825 22.1063 21.1892
Au 23.5444 17.4691 18.3249
Au 23.5332 17.4606 21.2358
Au 16.0071 17.4233 18.2961
Au 15.9829 17.4074 21.208
Au 18.2962 23.5587 22.0782
Au 21.1845 23.5476 22.0804
Au 18.3007 16.0095 22.1026
Au 21.203 16.0116 22.1249
Au 18.3263 23.5526 17.4151
Au 21.2227 23.5495 17.425
Au 18.3142 16.0037 17.428
Au 21.209 16.0051 17.4366
Au 26.6483 19.7714 15.5423
Au 26.747 19.7813 18.3439
Au 26.7363 19.7966 21.2185
Au 26.6095 19.7985 24.0605
Au 12.9 19.7309 15.4717
Au 12.7769 19.7394 18.3036
Au 12.7601 19.7343 21.1802
Pd 12.8577 19.7413 24.0055
Au 15.4801 26.6597 19.7491
Au 18.3307 26.7723 19.7409
Pd 21.1819 26.7679 19.735
Au 24.0015 26.6528 19.7267
Au 15.5154 12.8861 19.7655
Au 18.3344 12.7732 19.7725
Au 21.1954 12.7705 19.7724
Au 24.037 12.8931 19.7896
Pd 19.7499 15.5573 26.6836
Pd 19.7371 18.3577 26.7737
Pd 19.7332 21.1832 26.7664
Au 19.7407 24.0165 26.6556
Pd 19.789 15.5228 12.8961
Pd 19.7912 18.3202 12.7843
Pd 19.7961 21.174 12.7767
Au 19.798 24.0044 12.8532
Pd 24.3819 18.3508 25.017
Au 22.0839 16.9273 25.9037
Pd 24.3695 21.2281 25.0144
Pd 22.0829 19.7821 25.9612
Au 22.0852 22.6288 25.8885
Au 24.416 18.3191 14.5723
Au 22.1133 16.8979 13.6749
Au 24.4105 21.2283 14.5576
Au 22.1127 19.7661 13.5764
Au 22.1276 22.6286 13.6464
Au 15.0929 18.3036 24.9781
Au 17.4163 16.9075 25.8844
Au 15.071 21.2024 24.9808
Pd 17.3888 19.7612 25.9498
Au 17.3807 22.6311 25.8693
Au 15.1636 18.2708 14.5418
Pd 17.4476 16.8791 13.6823
Au 15.1329 21.1875 14.5276
Au 17.446 19.7135 13.5914
Au 17.4499 22.6221 13.6502
Au 24.9635 24.43 18.2945
Au 25.8394 22.1343 16.9
Pd 24.953 24.432 21.2018
Au 25.9173 22.1636 19.7725
Pd 25.8293 22.1336 22.6573
Au 14.5368 24.4201 18.2836
Au 13.6746 22.0932 16.8439
Au 14.5274 24.429 21.1952
Au 13.5736 22.1211 19.7402
Au 13.6485 22.1008 22.6421
Au 24.9943 15.1373 18.3201
Pd 25.8632 17.4412 16.9016
Au 24.9937 15.1365 21.2768
Au 25.9408 17.4277 19.7813
Au 25.8487 17.4356 22.7017
Au 14.5697 15.101 18.299
Au 13.6956 17.3933 16.8594
Pd 14.5463 15.1047 21.2196
Au 13.5917 17.3673 19.7604
Au 13.6568 17.388 22.6551
Au 18.2771 25.005 24.4068
Au 16.8552 25.8885 22.0872
Au 21.1784 24.9989 24.4038
Au 19.7467 25.9855 22.1058
Au 22.6036 25.8844 22.0727
Au 18.3016 14.5819 24.4404
Au 16.8668 13.6969 22.1175
Au 21.2141 14.5685 24.4659
Au 19.7609 13.5939 22.1525
Au 22.6567 13.6835 22.1682
Pd 18.337 24.9812 15.0818
Au 16.8934 25.8702 17.3879
Au 21.2312 24.9826 15.1047
Au 19.7854 25.9638 17.3816
Pd 22.6321 25.8752 17.4064
Au 18.334 14.5614 15.0971
Au 16.8953 13.6793 17.4092
Au 21.2417 14.5562 15.1099
Au 19.7783 13.5828 17.4043
Au 22.6528 13.6653 17.4139
Au 23.591 15.9731 23.6438
Au 23.5682 23.5804 23.5857
Au 23.6024 15.9474 15.954
Pd 23.5809 23.5958 15.9496
Pd 15.9234 15.9569 23.5952
Au 15.9062 23.5942 23.5927
Pd 15.9733 15.9352 15.9328
Au 15.9529 23.5849 15.9075
Au 28.9605 19.7496 14.1215
Pd 29.0926 19.7632 16.9341
Au 29.1219 19.7658 19.7807
Au 29.0828 19.7739 22.6364
Au 28.9363 19.7809 25.4669
Pd 10.5987 19.7199 14.0315
Au 10.4381 19.7269 16.8662
Au 10.3925 19.7198 19.7405
Au 10.4263 19.7258 22.6042
Au 10.557 19.7398 25.3969
Au 14.0428 28.9607 19.7445
Au 16.8858 29.1079 19.7512
Au 19.7663 29.1326 19.7394
Au 22.5958 29.088 19.7393
Au 25.4278 28.9547 19.7374
Au 14.1122 10.5489 19.7591
Au 16.9383 10.4103 19.7613
Au 19.7816 10.39 19.7576
Au 22.6316 10.4332 19.7682
Au 25.4757 10.5943 19.7791
Au 19.73 14.1396 28.968
Pd 19.7333 16.9361 29.0832
Au 19.7299 19.7673 29.1176
Au 19.7452 22.6176 29.085
Au 19.742 25.4495 28.9529
Au 19.8187 14.1046 10.6134
Pd 19.8154 16.8951 10.4867
Au 19.8258 19.7263 10.4538
Au 19.8297 22.5856 10.4518
Pd 19.7917 25.4098 10.5432
Au 26.6906 18.3112 26.4475
Au 24.4221 16.881 27.3474
Pd 22.0873 15.4891 28.2066
Au 26.6682 21.25 26.4621
Au 24.4135 19.7978 27.4346
Au 22.0955 18.3494 28.3133
Pd 24.3903 22.6761 27.3522
Au 22.1121 21.2289 28.3057
Pd 22.0934 24.083 28.1902
Au 26.7278 18.282 13.1324
Pd 24.4429 16.8573 12.2323
Au 22.149 15.4702 11.3857
Au 26.7297 21.2199 13.1111
Au 24.4514 19.7522 12.1168
Pd 22.161 18.3055 11.2453
Pd 24.4459 22.6476 12.1838
Pd 22.1601 21.1914 11.2277
Pd 22.1424 24.048 11.3342
Au 12.7689 18.3046 26.3911
Au 15.0707 16.8706 27.3291
Pd 17.4016 15.4867 28.1908
Pd 12.7525 21.1981 26.3914
Au 15.0247 19.7719 27.4106
Au 17.3748 18.3271 28.3098
Au 15.0238 22.6626 27.3079
Au 17.3468 21.198 28.3085
Au 17.3606 24.0861 28.1823
Au 12.8349 18.265 13.0819
Pd 15.1364 16.8376 12.1921
Au 17.4717 15.4504 11.3801
Au 12.8136 21.1803 13.0652
Au 15.1036 19.7113 12.0937
Au 17.445 18.277 11.2378
Au 15.1053 22.6294 12.1625
Au 17.4376 21.1536 11.2165
Au 17.4447 24.0459 11.306
Pd 26.4139 26.7433 18.2906
Pd 27.3271 24.4705 16.8759
Au 28.1948 22.1315 15.4836
Au 26.3992 26.7469 21.2058
Au 27.3997 24.4942 19.7553
Au 28.3084 22.1572 18.3311
Au 27.3002 24.462 22.6581
Au 28.2957 22.178 21.2191
Au 28.157 22.1532 24.0936
Au 13.058 26.7389 18.2749
Au 12.1746 24.4303 16.8047
Au 11.3451 22.0839 15.3979
Pd 13.0679 26.7326 21.1979
Au 12.0632 24.4746 19.7398
Au 11.1923 22.1243 18.2834
Au 12.1731 24.4358 22.6538
Au 11.1816 22.1213 21.1858
Au 11.3285 22.0916 24.0636
Au 26.448 12.8116 18.3253
Au 27.348 15.0944 16.8896
Au 28.1911 17.4131 15.4839
Au 26.4476 12.8343 21.2795
Au 27.4361 15.0774 19.813
Au 28.3167 17.4028 18.3488
Pd 27.3342 15.1056 22.7123
Au 28.3035 17.3807 21.2451
Au 28.1711 17.4047 24.1008
Au 13.1202 12.7669 18.2781
Au 12.2149 15.0447 16.8352
Au 11.3535 17.3739 15.4155
Au 13.11 12.7794 21.228
Au 12.1029 15.0235 19.7593
Au 11.2042 17.3496 18.3099
Au 12.1849 15.0731 22.6623
Au 11.1962 17.3469 21.2015
Pd 11.3285 17.4007 24.0583
Au 18.2693 26.452 26.7144
Au 16.8306 27.3612 24.4257
Pd 15.4079 28.2037 22.1034
Au 21.1886 26.4469 26.7221
Pd 19.7267 27.4574 24.4502
Au 18.3017 28.3413 22.1363
Au 22.6003 27.3648 24.4127
Pd 21.1735 28.3448 22.1139
Au 24.0319 28.2047 22.0921
Au 18.2886 13.1551 26.7574
Au 16.8734 12.2056 24.4623
Au 15.4649 11.3372 22.1358
Au 21.2072 13.1407 26.7776
Au 19.7734 12.1057 24.5067
Au 18.3343 11.2006 22.166
Pd 22.6695 12.2086 24.4955
Au 21.2237 11.2117 22.1769
Au 24.0981 11.3668 22.1752
Au 18.3346 26.406 12.7517
Au 16.8842 27.3279 15.029
Au 15.4354 28.1983 17.3642
Au 21.2374 26.4045 12.7601
Au 19.7826 27.4342 15.0317
Au 18.3397 28.3389 17.3468
Au 22.6547 27.3365 15.0751
Pd 21.2101 28.3255 17.3693
Au 24.0569 28.1898 17.3818
Pd 18.3605 13.1065 12.7959
Au 16.9055 12.1936 15.0708
Au 15.4957 11.3276 17.3902
Au 21.267 13.1266 12.8147
Au 19.8133 12.0983 15.0672
Au 18.3659 11.1981 17.3863
Pd 22.6937 12.2072 15.0935
Pd 21.2339 11.211 17.3879
Au 24.0884 11.3558 17.4067
Pd 25.9254 15.9314 25.077
Au 25.8924 23.6146 25.0735
Pd 25.0628 13.624 23.6668
Au 25.0106 25.952 23.6089
Au 23.6197 14.4999 25.9699
Au 23.5774 25.044 25.9558
Au 25.9332 15.9074 14.5023
Au 25.9314 23.6261 14.4881
Pd 25.0563 13.5951 15.9304
Au 25.0376 25.941 15.9219
Pd 23.6304 14.4903 13.6158
Au 23.6206 25.0341 13.5802
Pd 13.5641 15.9112 25.0488
Pd 13.5518 23.6051 25.0403
Au 14.4648 13.6093 23.6228
Au 14.4366 25.9407 23.6016
Au 15.8945 14.5049 25.947
Pd 15.8703 25.0615 25.9298
Au 13.6427 15.8817 14.4547
Pd 13.5934 23.5909 14.427
Pd 14.5097 13.579 15.8992
Au 14.4582 25.9333 15.8535
Au 15.9611 14.4765 13.6
Au 15.9343 25.0411 13.5494
Au 31.265 19.7222 12.699
Pd 31.3854 19.7473 15.4958
Au 31.4678 19.7436 18.3503
Au 31.4873 19.7339 21.2139
Au 31.4319 19.7754 24.0562
Au 31.2526 19.7756 26.8827
Au 8.32583 19.7117 12.5835
Au 8.1347 19.7054 15.413
Pd 8.08325 19.7111 18.3014
Pd 8.07293 19.7196 21.1622
Pd 8.12227 19.7307 24.0066
Pd 8.26592 19.7493 26.7741
Au 12.6075 31.272 19.7151
Au 15.4439 31.4553 19.7261
Au 18.3234 31.5116 19.7285
Au 21.2043 31.49 19.7445
Pd 24.0565 31.3859 19.7558
Pd 26.8342 31.2341 19.7545
Pd 12.7161 8.26351 19.7471
Au 15.5177 8.07228 19.7554
Pd 18.3631 8.04635 19.7531
Au 21.2045 8.04362 19.7605
Au 24.0837 8.11118 19.7698
Au 26.9039 8.29585 19.7639
Au 19.7081 12.689 31.2691
Au 19.6972 15.5113 31.4188
Au 19.7081 18.3409 31.4799
Au 19.7381 21.2189 31.4878
Au 19.7408 24.0615 31.4234
Pd 19.7423 26.8576 31.2311
Pd 19.8349 12.6895 8.33044
Au 19.8267 15.4705 8.16452
Pd 19.8163 18.3024 8.14021
Au 19.8045 21.1421 8.0855
Au 19.8145 23.9937 8.10381
Au 19.7856 26.8162 8.24383
Au 29.03 18.3211 27.8953
Au 26.7691 16.8573 28.8261
Au 24.4403 15.4394 29.7012
Au 22.0899 14.0464 30.5184
Au 29.0191 21.2534 27.89
Au 26.7686 19.808 28.9486
Au 24.4745 18.3546 29.8616
Au 22.1066 16.9152 30.6787
Au 26.6936 22.7222 28.8154
Pd 24.4501 21.268 29.8155
Au 22.1384 19.8124 30.7253
Pd 24.3937 24.1051 29.6619
Pd 22.1206 22.6736 30.6356
Au 22.1037 25.5178 30.5035
Au 29.0566 18.2578 11.7073
Pd 26.7532 16.8301 10.8064
Pd 24.4625 15.4265 9.9313
Pd 22.1683 14.0419 9.08558
Au 29.0741 21.1936 11.6767
Au 26.8131 19.7149 10.6475
Au 24.5248 18.2706 9.75668
Au 22.1851 16.8745 8.90358
Au 26.7838 22.6456 10.7321
Au 24.4992 21.1898 9.72206
Au 22.1865 19.7355 8.8578
Au 24.4682 24.0618 9.83762
Pd 22.1821 22.6104 8.88676
Au 22.1451 25.4577 9.01944
Au 10.4398 18.3035 27.8126
Au 12.7275 16.8675 28.7835
Pd 15.066 15.4422 29.6341
Au 17.347 14.0491 30.4916
Au 10.4273 21.1904 27.7984
Pd 12.676 19.7646 28.8553
Au 14.988 18.3263 29.8117
Pd 17.343 16.8847 30.636
Au 12.7008 22.6308 28.7488
Pd 14.962 21.2156 29.7969
Au 17.2997 19.7599 30.732
Au 15.0063 24.0962 29.6675
Au 17.3078 22.6447 30.6955
Au 17.3624 25.5392 30.5256
Pd 10.538 18.2639 11.6376
Au 12.8174 16.834 10.726
Au 15.1534 15.4116 9.85678
Pd 17.4979 14.0339 9.05398
Pd 10.5271 21.1369 11.6273
Au 12.7734 19.7066 10.5905
Pd 15.0911 18.2743 9.73042
Au 17.448 16.8636 8.87955
Au 12.7838 22.5966 10.683
Pd 15.0766 21.1528 9.71424
Au 17.4037 19.7092 8.82086
Au 15.0866 24.0449 9.795
Au 17.4035 22.5728 8.83725
Au 17.422 25.4676 8.97296
Au 27.8499 29.0657 18.2917
Au 28.7762 26.799 16.8705
Au 29.6889 24.4878 15.4501
Au 30.5451 22.1114 14.0432
Au 27.8319 29.0979 21.2332
Au 28.8798 26.8233 19.7727
Au 29.8297 24.5183 18.3393
Au 30.7114 22.1398 16.9079
Au 28.7737 26.8074 22.6765
Pd 29.805 24.5344 21.2304
Au 30.7363 22.1799 19.7855
Au 29.6651 24.4954 24.1096
Au 30.6837 22.1936 22.6569
Au 30.513 22.1692 25.5443
Au 11.5923 29.0659 18.2476
Au 10.6751 26.7555 16.7822
Pd 9.83989 24.4005 15.3583
Au 9.03737 22.0669 13.946
Au 11.6148 29.036 21.183
Au 10.5504 26.8056 19.7313
Au 9.64413 24.4805 18.2479
Au 8.82031 22.1093 16.8354
Au 10.693 26.7369 22.645
Au 9.63725 24.4755 21.1909
Au 8.76232 22.1002 19.72
Pd 9.82739 24.4042 24.06
Au 8.81954 22.1071 22.617
Pd 9.00695 22.0706 25.4508
Pd 27.8793 10.5039 18.337
Au 28.8323 12.7528 16.916
Au 29.7109 15.0767 15.455
Pd 30.5008 17.4008 14.0539
Au 27.8969 10.5203 21.2397
Pd 28.8902 12.7548 19.8061
Au 29.8555 15.0453 18.3869
Au 30.6774 17.389 16.9179
Au 28.8226 12.8145 22.696
Pd 29.803 15.0532 21.2582
Pd 30.6979 17.3695 19.8168
Pd 29.6605 15.1049 24.1091
Pd 30.6417 17.3832 22.6599
Au 30.5087 17.4042 25.5083
Au 11.6881 10.417 18.2773
Au 10.7463 12.7048 16.82
Au 9.86955 15.0105 15.3752
Au 9.05464 17.3588 13.9463
Au 11.6747 10.4237 21.2201
Au 10.6156 12.672 19.7471
Au 9.68045 14.9877 18.3026
Au 8.82701 17.3239 16.856
Au 10.7259 12.7254 22.6471
Pd 9.69474 14.9963 21.1884
Pd 8.80055 17.3402 19.74
Au 9.8238 15.0803 24.0632
Au 8.82643 17.3507 22.6042
Pd 9.00856 17.4193 25.4538
Au 18.2796 27.8933 29.0482
Au 16.8168 28.833 26.761
Au 15.3888 29.7051 24.4426
Au 13.9594 30.5274 22.1075
Au 21.1913 27.8835 29.0515
Au 19.7376 28.9403 26.7879
Pd 18.2784 29.834 24.4839
Au 16.8497 30.7112 22.1555
Au 22.6547 28.8251 26.7541
Au 21.1731 29.8585 24.4835
Au 19.7418 30.7561 22.1612
Pd 24.0582 29.67 24.4244
Au 22.6404 30.6979 22.1416
Pd 25.4685 30.4915 22.0827
Au 18.2522 11.6932 29.0516
Pd 16.8638 10.7826 26.7755
Au 15.4431 9.84409 24.4815
Au 14.0419 8.99216 22.1322
Au 21.1852 11.6595 29.0925
Au 19.718 10.6264 26.8378
Pd 18.3074 9.7045 24.5367
Au 16.9136 8.80195 22.1765
Au 22.6487 10.748 26.811
Au 21.2107 9.687 24.5355
Au 19.7696 8.77786 22.1813
Au 24.1012 9.86592 24.4989
Au 22.6686 8.82725 22.1857
Au 25.5455 9.02511 22.1448
Au 18.3172 27.8351 10.4291
Pd 16.8785 28.7502 12.6906
Au 15.4237 29.6711 14.9774
Au 13.9786 30.5286 17.3437
Pd 21.2272 27.8102 10.4426
Au 19.7914 28.8939 12.668
Au 18.3306 29.8486 14.9491
Au 16.8699 30.7204 17.304
Pd 22.6666 28.7548 12.7329
Pd 21.2386 29.8107 14.9934
Au 19.7843 30.7506 17.3079
Au 24.1065 29.6664 15.0238
Au 22.643 30.6938 17.3418
Au 25.5055 30.5251 17.3882
Au 18.3761 11.6884 10.4765
Au 16.9171 10.7347 12.745
Au 15.4799 9.81538 15.0471
Au 14.0789 8.98446 17.3897
Au 21.294 11.7005 10.4884
Au 19.8194 10.6287 12.7253
Au 18.3664 9.65771 15.0401
Pd 16.9385 8.84135 17.3838
Au 22.7267 10.7726 12.7752
Au 21.2616 9.68447 15.05
Pd 19.7932 8.81284 17.3903
Au 24.1437 9.87132 15.0777
Au 22.6672 8.85409 17.3814
Pd 25.5392 9.05668 17.4305
Au 28.2634 15.8865 26.5125
Au 28.2471 23.677 26.5586
Pd 27.4334 13.5957 25.0961
Au 27.3949 26.0072 25.1156
Au 26.5416 11.278 23.689
Au 26.4697 28.3274 23.6412
Pd 25.9812 14.4663 27.4406
Pd 25.9219 25.0766 27.4427
Au 25.1121 12.1255 26.0151
Au 25.055 27.446 25.997
Au 23.6373 13.0353 28.3189
Au 23.6119 26.5163 28.2965
Pd 28.2825 15.8884 13.0595
Au 28.3109 23.6557 13.0119
Au 27.437 13.5469 14.459
Au 27.4145 26.009 14.4527
Au 26.535 11.2582 15.9067
Pd 26.4831 28.2825 15.9026
Au 25.9699 14.4489 12.1401
Au 25.9909 25.0904 12.0849
Pd 25.0838 12.1441 13.5882
Pd 25.0711 27.4207 13.5574
Pd 23.6487 13.0642 11.2986
Au 23.6454 26.5032 11.2292
Au 11.202 15.8867 26.4785
Au 11.1964 23.614 26.4643
Au 12.0706 13.5157 25.0868
Pd 12.0493 25.9594 25.051
Pd 13.0262 11.2218 23.6312
Au 12.9573 28.2735 23.6
Au 13.526 14.424 27.4366
Au 13.4771 25.0924 27.4006
Au 14.4386 12.0856 25.9906
Au 14.3752 27.4312 25.9657
Pd 15.8923 13.0568 28.2791
Au 15.8296 26.5382 28.284
Pd 11.2945 15.8723 12.9939
Au 11.256 23.5774 12.9549
Au 12.1463 13.5077 14.3846
Au 12.0604 25.9547 14.3444
Au 13.0628 11.2092 15.8509
Au 12.9709 28.2986 15.8016
Au 13.6018 14.4042 12.0769
Au 13.5621 25.0653 12.0318
Pd 14.501 12.0889 13.5456
Au 14.4387 27.4216 13.4533
Au 15.9622 13.0145 11.2528
Pd 15.9291 26.4668 11.1904
Pd 33.4628 19.7052 11.3396
Au 33.6476 19.7203 14.0688
Pd 33.6615 19.7279 16.8917
Au 33.7459 19.7267 19.7777
Au 33.7417 19.7409 22.6635
Au 33.6713 19.7671 25.5344
Au 33.4584 19.7739 28.2577
Au 6.11417 19.7021 11.194
Au 5.90348 19.6976 13.9395
Pd 5.88243 19.7025 16.8281
Au 5.81946 19.7337 19.7149
Au 5.82775 19.7397 22.5947
Au 5.86227 19.7409 25.4324
Au 6.03116 19.7516 28.1391
Au 11.2244 33.4818 19.7092
Au 13.9588 33.6953 19.716
Au 16.8526 33.7651 19.715
Au 19.7779 33.7751 19.7397
Pd 22.6832 33.6845 19.7635
Au 25.5005 33.6349 19.7689
Au 28.2067 33.4634 19.776
Au 11.3566 6.03258 19.7366
Au 14.0601 5.84739 19.7409
Au 16.9291 5.78122 19.7382
Au 19.7961 5.77889 19.7462
Pd 22.6846 5.8493 19.7601
Au 25.5487 5.87494 19.7714
Au 28.2802 6.08574 19.7701
Au 19.6912 11.3195 33.4862
Au 19.6925 14.043 33.6735
Au 19.7094 16.8935 33.7428
Au 19.7286 19.783 33.7603
Au 19.7446 22.6792 33.7403
Au 19.747 25.54 33.6565
Au 19.7487 28.2415 33.4482
Au 19.8461 11.3089 6.10301
Au 19.8373 14.0256 5.91183
Pd 19.8292 16.862 5.90915
Pd 19.8115 19.6992 5.87348
Au 19.7963 22.5601 5.81273
Au 19.7994 25.4252 5.83956
Au 19.7953 28.1638 6.00829
Pd 31.3205 18.3723 29.2182
Au 29.0797 16.9115 30.193
Au 26.741 15.4472 31.1171
Au 24.3626 14.0169 31.9733
Pd 21.9846 12.6262 32.7608
Pd 31.3094 21.2056 29.2064
Au 29.1327 19.7968 30.3104
Au 26.8312 18.3254 31.2852
Au 24.4472 16.8622 32.1686
Pd 22.0436 15.4414 32.93
Pd 28.9922 22.674 30.1401
Au 26.7852 21.2895 31.2656
Au 24.4707 19.8393 32.1989
Au 22.0885 18.3484 33.0483
Au 26.6827 24.1286 31.0792
Au 24.4298 22.7252 32.1134
Pd 22.085 21.2728 32.9932
Au 24.3731 25.5354 31.9332
Pd 22.0819 24.1302 32.9051
Au 22.034 26.949 32.7631
Au 31.3478 18.2913 10.3345
Pd 29.0385 16.8579 9.44896
Au 26.7507 15.428 8.53943
Au 24.4538 14.0086 7.66169
Au 22.1414 12.6148 6.81947
Au 31.3689 21.1373 10.3149
Pd 29.1487 19.7133 9.32181
Au 26.8559 18.2505 8.34188
Pd 24.5195 16.809 7.49691
Au 22.1909 15.4195 6.61108
Pd 29.0798 22.5838 9.40149
Pd 26.8419 21.1778 8.35782
Pd 24.512 19.7111 7.43443
Au 22.1624 18.2929 6.55244
Au 26.7687 24.0261 8.43544
Au 24.5083 22.6047 7.39963
Pd 22.1457 21.1671 6.57039
Au 24.4254 25.4587 7.55163
Au 22.1577 24.0219 6.55837
Pd 22.0735 26.8397 6.75985
Pd 8.15514 18.3574 29.132
Au 10.4065 16.9005 30.1304
Au 12.7771 15.445 31.0449
Pd 15.0914 14.0344 31.8896
Au 17.3898 12.6218 32.7688
Au 8.1245 21.1613 29.1527
Au 10.3377 19.76 30.2389
Au 12.6415 18.3101 31.2182
Pd 15.0166 16.8503 32.0559
Au 17.3301 15.4435 32.9486
Pd 10.4071 22.5919 30.0706
Au 12.6218 21.2155 31.1964
Au 14.9431 19.7693 32.1694
Au 17.3297 18.2933 33.0326
Pd 12.7187 24.0481 31.0055
Au 14.95 22.6706 32.125
Au 17.3524 21.2198 33.0668
Au 15.0611 25.5244 31.9389
Au 17.3658 24.1303 32.9928
Au 17.4465 26.9649 32.7819
Au 8.25953 18.276 10.2256
Au 10.547 16.8582 9.32955
Pd 12.8864 15.4277 8.47886
Au 15.2207 13.999 7.59575
Au 17.5485 12.6076 6.78769
Au 8.24935 21.1178 10.22
Au 10.4605 19.7083 9.19584
Au 12.7883 18.2566 8.26863
Pd 15.1357 16.8284 7.4528
Au 17.4734 15.4146 6.58893
Pd 10.5188 22.5258 9.34398
Pd 12.772 21.1608 8.29819
Pd 15.0917 19.7063 7.40789
Pd 17.4797 18.267 6.56131
Au 12.8051 23.9926 8.39847
Pd 15.0887 22.5888 7.41785
Au 17.4344 21.1317 6.49591
Au 15.1434 25.4331 7.51072
Pd 17.4599 24.0284 6.578
Au 17.4882 26.8581 6.68312
Au 29.2156 31.3699 18.3573
Au 30.1632 29.0935 16.9108
Au 31.0759 26.7812 15.4679
Au 31.9685 24.4103 14.0221
Au 32.8084 22.0299 12.6175
Au 29.2007 31.384 21.1989
Pd 30.2152 29.1585 19.7819
Pd 31.1831 26.8547 18.3164
Au 32.1539 24.5057 16.8802
Au 33.0022 22.0807 15.4451
Au 30.1339 29.112 22.6562
Au 31.2177 26.875 21.2352
Au 32.1783 24.5299 19.8043
Au 33.0683 22.0958 18.3445
Pd 31.0296 26.7759 24.083
Au 32.1262 24.5372 22.6924
Pd 33.017 22.1027 21.2433
Au 31.9374 24.4559 25.5387
Au 32.986 22.1461 24.127
Au 32.7812 22.0932 26.9685
Au 10.2257 31.3688 18.2794
Au 9.29473 29.0611 16.8158
Au 8.41173 26.6832 15.3436
Au 7.58207 24.337 13.9176
Au 6.77911 22.0046 12.5051
Pd 10.2745 31.3222 21.1245
Au 9.16928 29.146 19.7167
Au 8.21575 26.8139 18.2273
Au 7.35399 24.4375 16.7571
Pd 6.60694 22.0437 15.3258
Pd 9.34312 29.0162 22.5765
Au 8.21393 26.8085 21.1909
Pd 7.33498 24.4408 19.706
Au 6.47377 22.0617 18.2545
Au 8.40381 26.69 24.0334
Au 7.33882 24.4273 22.641
Pd 6.5067 22.058 21.1751
Au 7.54792 24.3438 25.4495
Pd 6.57942 22.0556 24.0612
Au 6.72504 22.0288 26.8491
Au 29.275 8.21798 18.3723
Au 30.2032 10.4651 16.9551
Au 31.1214 12.7837 15.5014
Au 31.9768 15.1244 14.0465
Au 32.7779 17.4224 12.6497
Pd 29.2275 8.23464 21.1936
Pd 30.2556 10.4466 19.788
Pd 31.216 12.715 18.3627
Au 32.158 15.0559 16.9095
Pd 32.9084 17.4154 15.4506
Au 30.1949 10.5082 22.6398
Au 31.2365 12.7388 21.2362
Au 32.1765 15.0439 19.8379
Pd 32.9782 17.4019 18.3607
Au 31.1034 12.8349 24.0885
Pd 32.0719 15.0815 22.7004
Au 33.0153 17.3772 21.255
Au 31.9437 15.1416 25.5163
Pd 32.9094 17.42 24.1171
Au 32.7707 17.4731 26.9441
Au 10.3491 8.11174 18.3154
Pd 9.42952 10.4038 16.8616
Au 8.49117 12.7156 15.3804
Pd 7.64476 15.0817 13.9402
Au 6.79817 17.3939 12.5113
Au 10.3327 8.11709 21.1491
Au 9.24865 10.3184 19.7193
Pd 8.33712 12.6372 18.2443
Au 7.39657 14.9596 16.7917
Au 6.56883 17.3445 15.3531
Au 9.35656 10.4179 22.6001
Au 8.27515 12.6555 21.1809
Au 7.34065 14.9873 19.727
Au 6.48749 17.3656 18.2832
Pd 8.46531 12.783 24.0321
Au 7.37034 15.0088 22.623
Au 6.47438 17.3848 21.1585
Au 7.55626 15.1323 25.4686
Au 6.54048 17.3971 24.0532
Au 6.73205 17.4636 26.8607
Pd 18.3364 29.2074 31.3309
Au 16.8692 30.1935 29.0739
Au 15.3952 31.1095 26.7413
Au 13.9488 31.972 24.3897
Au 12.5233 32.7959 22.0306
Pd 21.1467 29.2038 31.3263
Au 19.7409 30.3084 29.1442
Pd 18.2637 31.2236 26.8192
Au 16.8127 32.1562 24.5061
Au 15.3678 33.008 22.1047
Pd 22.6055 30.1503 29.0491
Au 21.2086 31.2715 26.8389
Au 19.718 32.2007 24.5188
Au 18.2834 33.0851 22.1143
Au 24.0798 31.0782 26.7174
Au 22.684 32.1461 24.4889
Au 21.22 33.0687 22.1231
Pd 25.4781 31.8939 24.3473
Au 24.1145 32.96 22.1068
Pd 26.8804 32.7197 22.0346
Pd 18.298 10.3533 31.334
Pd 16.8855 9.41865 29.0456
Pd 15.4626 8.51735 26.7585
Au 14.029 7.5676 24.4184
Pd 12.6445 6.75722 22.0226
Au 21.1312 10.2981 31.3963
Au 19.7158 9.23724 29.1732
Au 18.2675 8.30257 26.8684
Au 16.8614 7.37962 24.5382
Au 15.4473 6.50961 22.1158
Au 22.6052 9.3603 29.1089
Pd 21.1973 8.33324 26.8694
Au 19.7607 7.34121 24.5366
Au 18.3494 6.4461 22.1162
Pd 24.0508 8.49095 26.7613
Au 22.6819 7.38801 24.5259
Pd 21.2373 6.5054 22.1046
Pd 25.5173 7.61879 24.4067
Au 24.1332 6.54319 22.1341
Au 26.9643 6.75842 22.0802
Au 18.3566 29.1842 8.10649
Au 16.8892 30.1204 10.381
Au 15.4389 31.0255 12.6745
Pd 13.9888 31.9064 15.0562
Au 12.5391 32.7926 17.396
Au 21.2126 29.1737 8.13264
Au 19.79 30.2556 10.3155
Au 18.2893 31.2234 12.5897
Au 16.8245 32.1466 14.9341
Au 15.3769 33.0026 17.3348
Au 22.6522 30.102 10.4234
Au 21.2585 31.2157 12.6375
Au 19.7915 32.1888 14.9492
Au 18.3109 33.0804 17.3417
Au 24.1032 31.0351 12.7242
Au 22.6913 32.1335 14.9839
Au 21.2357 33.0749 17.3724
Au 25.5391 31.9375 15.0833
Au 24.1159 32.9842 17.4043
Au 26.9332 32.7883 17.4672
Au 18.4215 10.319 8.18777
Pd 16.9848 9.41265 10.4602
Au 15.5101 8.44178 12.7448
Au 14.0594 7.54615 15.1053
Pd 12.6718 6.75653 17.472
Au 21.2663 10.323 8.20246
Pd 19.8309 9.31134 10.3901
Au 18.3601 8.28021 12.6689
Au 16.8986 7.35296 15.05
Pd 15.4834 6.57973 17.4138
Pd 22.6922 9.42938 10.4884
Au 21.2971 8.29855 12.6824
Au 19.8247 7.31848 15.0582
Au 18.3637 6.49244 17.4055
Au 24.1446 8.49022 12.7765
Au 22.7438 7.38208 15.0562
Pd 21.2497 6.53572 17.4266
Au 25.5798 7.61448 15.1427
Pd 24.1614 6.6234 17.4293
Au 26.9694 6.77948 17.4736
Pd 30.5746 15.9904 27.901
Au 30.5817 23.6331 27.9598
Au 29.7834 13.6057 26.501
Pd 29.7216 25.9642 26.5006
Au 28.909 11.2744 25.0825
Au 28.8292 28.3286 25.084
Au 27.96 8.94477 23.6089
Au 27.8815 30.635 23.5932
Au 28.3162 14.4863 28.8859
Au 28.2405 25.1066 28.8894
Au 27.4595 12.1332 27.4434
Pd 27.3637 27.4143 27.4396
Au 26.5094 9.76426 25.9926
Pd 26.4408 29.7658 25.9337
Au 25.9676 13.0364 29.7902
Pd 25.8894 26.4818 29.7487
Au 25.0463 10.6516 28.3328
Au 25.0407 28.8866 28.3074
Au 23.5563 11.6074 30.6492
Au 23.5625 27.9437 30.609
Au 30.6101 15.9185 11.6481
Au 30.6421 23.5629 11.592
Au 29.7892 13.5708 13.0475
Au 29.7725 25.9911 13.0354
Au 28.9173 11.2345 14.5038
Pd 28.8447 28.2915 14.5236
Au 27.9677 8.94594 15.9823
Au 27.9332 30.5982 15.9328
Au 28.2889 14.4632 10.7117
Au 28.3229 25.0401 10.6275
Pd 27.4091 12.1361 12.1453
Pd 27.4162 27.4126 12.1187
Au 26.5326 9.81419 13.5683
Au 26.5276 29.7275 13.5605
Pd 25.9436 13.0681 9.84301
Au 25.9823 26.4844 9.73198
Pd 25.0636 10.7452 11.2892
Au 25.077 28.8444 11.2209
Au 23.6528 11.6394 8.98646
Au 23.5986 27.8885 8.89451
Au 8.87014 15.946 27.8758
Au 8.86014 23.5549 27.8537
Au 9.71382 13.5533 26.4755
Au 9.69953 25.9304 26.4442
Au 10.6431 11.1789 25.0303
Au 10.5954 28.2813 25.0151
Au 11.6149 8.88449 23.5803
Au 11.5343 30.596 23.5479
Au 11.1883 14.4618 28.8663
Au 11.1533 25.0355 28.8322
Au 12.0841 12.0512 27.4432
Au 12.0157 27.4403 27.3917
Au 13.0308 9.74235 25.9656
Pd 12.9881 29.7582 25.8935
Au 13.5731 13.0236 29.7653
Au 13.4949 26.5119 29.7569
Pd 14.5086 10.7044 28.2899
Au 14.4141 28.9127 28.2843
Au 15.9008 11.6196 30.5825
Au 15.9012 27.9642 30.6145
Au 9.00521 15.8926 11.5418
Pd 8.97628 23.4656 11.5536
Au 9.82051 13.5306 12.9609
Au 9.73767 25.8755 12.9199
Pd 10.723 11.2049 14.4569
Au 10.5966 28.2779 14.3702
Au 11.6545 8.87634 15.9101
Au 11.5466 30.6183 15.8591
Pd 11.315 14.4718 10.6528
Pd 11.2696 24.9435 10.6009
Au 12.1638 12.0514 12.0534
Au 12.0902 27.399 11.9791
Au 13.0838 9.7423 13.5228
Au 13.0119 29.7576 13.4549
Au 13.6562 12.9951 9.74004
Au 13.5961 26.4488 9.67965
Pd 14.5729 10.6772 11.236
Pd 14.5206 28.8036 11.1488
Pd 16.0618 11.6386 8.95243
Au 15.9496 27.8699 8.85606
