923
Atoms. Timestep: 20488
Au 17.9487 14.3647 21.6606
Au 19.1417 17.7827 19.7805
Au 21.1152 15.5078 18.7524
Au 18.2131 15.4204 18.8919
Au 13.1292 20.6609 20.5071
Au 17.721 20.1799 20.7113
Au 18.7273 21.5137 23.1675
Au 15.3244 19.0538 21.6755
Au 21.9662 17.779 20.2064
Au 16.782 13.9889 17.0396
Au 14.8297 17.8609 24.2943
Au 20.7002 18.2006 17.6143
Au 17.9666 19.3489 17.8918
Pd 28.831 20.4892 21.4014
Au 23.9845 21.7483 23.0731
Au 26.5569 17.3102 21.4309
Pd 11.2323 18.5749 20.2278
Au 12.269 25.5423 19.332
Au 10.845 18.3826 25.6455
Pd 18.7836 27.401 19.2237
Au 21.054 20.6471 24.0858
Au 22.0583 24.0873 12.0239
Pd 17.352 17.1338 21.7914
Au 22.469 12.4038 20.608
Au 21.352 15.0902 23.9545
Au 18.6771 14.3332 24.372
Au 17.0069 17.2931 25.8302
Au 21.7654 19.1022 26.5277
Au 17.0377 16.9099 16.6076
Au 21.0232 20.0108 14.2878
Au 19.4184 23.4687 16.4526
Au 20.0921 16.0556 21.6292
Au 21.6002 17.8066 23.8019
Au 26.1109 21.5299 21.3048
Au 18.6825 22.1247 18.8288
Au 10.6252 16.2905 27.2334
Au 12.6228 21.6614 22.9828
Pd 14.6174 15.7561 17.5721
Au 15.9038 20.2293 12.5561
Pd 26.2552 23.5407 23.3886
Au 23.9798 24.2948 22.1592
Au 21.3904 22.6508 18.4199
Au 9.67471 29.4785 17.7952
Au 22.7515 20.0288 18.3006
Au 24.4733 19.3509 20.2949
Au 19.5484 13.2291 16.7554
Au 10.1756 18.2781 22.8272
Au 13.3625 17.545 26.7291
Au 19.0827 19.5317 25.7093
Au 17.4541 11.5589 15.7834
Au 19.0411 17.0122 24.1259
Au 15.7216 22.7721 18.7704
Au 19.6783 18.972 22.2155
Au 16.3789 15.0428 12.4126
Au 24.316 13.8544 19.1951
Au 27.4186 22.0075 15.99
Au 27.5139 24.5113 14.7475
Au 24.0263 23.6259 17.8744
Au 30.625 19.5571 23.799
Au 17.8109 20.555 10.4575
Au 8.45148 13.1916 23.7474
Au 9.7746 26.2984 20.1126
Pd 12.8302 20.4909 30.3489
Au 15.5802 28.4968 22.93
Au 17.3424 28.6817 15.4871
Pd 19.9812 28.0844 21.7032
Au 19.6676 25.26 20.7857
Au 15.5884 13.1183 22.1914
Au 15.5047 15.0804 20.1058
Au 25.5131 10.3179 16.4815
Au 25.8561 9.4758 21.2377
Pd 20.7105 12.6723 28.185
Pd 23.5752 19.4792 24.4642
Pd 22.2872 25.8899 25.0014
Au 19.9661 22.703 25.6838
Pd 22.2754 14.8054 16.2078
Pd 19.5353 15.8856 16.3958
Pd 14.4888 21.1871 16.5455
Au 17.018 22.8127 11.7649
Pd 25.8429 19.4421 23.0445
Au 20.471 14.6734 26.4493
Pd 25.4056 21.5105 25.3516
Pd 24.5255 19.535 27.07
Au 24.5628 26.8153 26.3233
Au 24.2631 16.4235 15.052
Au 23.0719 16.9793 17.5744
Au 25.7675 18.0193 13.5502
Au 17.1647 21.6034 16.7025
Au 20.9002 22.8663 14.2122
Au 12.3901 17.4204 29.4226
Au 17.5689 14.8792 27.0135
Au 17.2247 19.2502 23.6967
Pd 14.5333 19.119 28.8206
Au 16.8424 23.5485 23.486
Au 7.42013 16.5393 20.2037
Pd 17.8491 16.8128 13.8589
Au 15.4162 20.1157 18.9913
Au 13.3183 25.0927 11.0914
Au 15.1042 19.7763 6.55612
Au 22.4384 24.6162 19.9535
Au 20.175 20.8035 16.7842
Pd 21.9274 23.3794 23.8383
Au 22.2879 20.004 21.8007
Pd 28.1998 23.4809 21.4006
Au 16.895 17.7494 6.34684
Au 12.5891 19.9713 17.9647
Au 14.2428 21.5392 27.6399
Au 9.01793 19.317 11.78
Au 7.64015 23.5395 17.7205
Au 25.4042 14.7818 21.6701
Pd 25.2671 18.5176 17.5407
Au 23.8991 17.5905 22.3121
Au 25.359 20.4287 15.0319
Au 25.3664 21.2598 17.9704
Au 12.6437 15.0694 19.2569
Au 13.7472 17.7388 19.762
Pd 10.4933 20.6222 24.2864
Au 5.29561 16.3763 22.1461
Au 12.768 18.837 22.6413
Au 16.377 17.5374 19.2397
Au 10.4812 23.4468 21.0533
Au 22.6804 21.6742 25.9173
Au 23.4983 22.026 20.2407
Au 21.741 25.832 22.3495
Au 17.5823 9.94295 25.5657
Au 18.2095 11.8128 23.4886
Au 20.874 12.1637 24.8409
Au 19.8674 13.3265 19.657
Au 23.9921 15.4939 23.9266
Pd 20.4213 20.2558 19.7489
Au 13.3442 30.88 15.1619
Au 22.8084 21.7284 16.0328
Au 20.8654 22.5836 21.3867
Pd 20.4459 25.3476 18.0697
Au 18.0315 14.2135 14.5632
Au 12.9143 13.5886 21.551
Au 21.9839 12.7654 17.963
Au 22.632 15.1086 21.2741
Au 25.4232 12.1896 12.0814
Au 27.0299 12.9005 26.5203
Au 26.8016 25.7298 25.0399
Au 27.761 12.9548 22.0321
Pd 19.6799 22.3094 11.7533
Pd 11.0139 14.1426 23.4405
Au 10.5628 21.3988 19.1221
Pd 19.3736 11.8713 14.0574
Au 14.2045 23.9336 15.9129
Au 27.9442 19.6716 14.398
Pd 29.7809 22.1152 14.5737
Au 26.8319 24.0045 17.5973
Au 32.8669 24.0216 20.7377
Au 29.4716 21.3688 25.5754
Pd 8.05669 20.8893 17.8617
Au 14.1872 16.2686 22.1153
Au 7.13325 26.9171 20.9735
Au 5.6091 19.0642 22.0513
Au 9.52501 23.7633 29.3914
Au 17.2615 33.4897 16.2705
Au 18.984 34.1999 24.6811
Au 18.3764 31.5365 17.9754
Au 19.9311 27.0409 24.2175
Au 22.4339 29.3622 20.8549
Au 7.21493 20.41 27.0747
Au 14.2543 6.75188 15.0685
Au 21.0671 7.2631 13.2308
Au 21.3635 10.3855 19.132
Au 27.2056 11.3712 19.81
Au 25.714 13.3173 24.0844
Pd 19.8976 15.1265 29.1095
Au 21.2698 17.7701 31.5893
Au 18.9471 22.4279 30.2776
Au 20.1097 26.1025 26.6636
Au 21.4815 9.96047 13.7143
Pd 20.5891 14.728 14.0312
Au 20.3639 17.2861 12.7602
Au 18.2425 24.1536 13.9893
Pd 16.724 21.5402 8.11773
Au 27.2119 19.5042 25.6156
Au 26.8916 15.1195 28.4211
Pd 22.6456 14.6695 28.2324
Au 27.7158 21.3683 23.6201
Au 24.2841 24.0486 25.126
Au 25.2742 17.6067 25.2977
Pd 26.7776 18.3532 28.0413
Au 21.7361 17.1571 28.8093
Pd 21.3458 21.9861 28.6106
Au 23.2312 19.0477 15.7626
Pd 24.6136 17.494 11.1059
Au 23.8372 13.7321 13.8997
Au 24.8352 23.3814 12.3405
Au 25.5656 15.3086 12.3646
Pd 21.5492 17.1457 15.0795
Pd 22.8728 15.9488 12.753
Pd 15.8258 22.1965 14.4144
Pd 20.2537 21.0196 6.34454
Au 9.01716 14.1701 26.2435
Au 18.6905 13.093 33.3438
Pd 19.2647 15.4909 31.8693
Pd 17.2667 21.7068 25.4997
Au 16.3647 18.1947 30.5909
Au 19.0527 17.6626 30.1785
Au 15.3392 25.9496 23.9914
Au 18.6276 21.428 27.7367
Au 15.0738 23.3064 25.7014
Au 12.7588 22.8023 18.0146
Pd 12.5947 22.2269 9.88482
Au 16.0928 15.1405 7.18592
Au 14.1947 22.6342 12.2706
Au 13.8952 18.656 11.1365
Au 18.567 19.3364 12.8104
Au 12.9468 28.2053 14.3117
Au 18.5152 21.4623 14.3368
Au 18.2844 22.899 6.39206
Pd 25.8828 28.3054 17.1351
Pd 25.6794 23.8566 20.0418
Au 24.9473 23.1798 15.1009
Au 22.225 24.464 16.0533
Au 23.5115 26.477 18.0914
Au 29.2639 24.4291 18.8151
Au 26.4746 25.7535 21.8033
Au 26.1724 26.4101 19.0526
Au 28.7073 26.61 22.9561
Au 6.8685 24.0697 14.1411
Au 11.463 24.2695 16.03
Au 6.03793 20.0056 16.2439
Pd 11.5779 28.2126 19.5784
Au 10.4905 26.7958 17.4753
Au 10.1387 20.884 13.7093
Au 16.3742 27.2842 20.3759
Au 6.93507 15.335 24.3034
Au 17.7607 23.2379 34.5211
Au 30.7711 13.9985 16.6073
Au 27.7661 19.6413 17.1606
Au 29.7653 16.4941 15.2078
Au 28.7958 15.4816 21.8726
Au 27.1554 16.8817 18.7341
Au 32.0932 17.7929 14.93
Pd 25.2644 15.0609 26.2904
Au 27.0204 19.4411 19.6999
Au 22.6472 16.5342 26.1296
Au 10.46 13.6189 20.2238
Au 11.7351 14.4471 10.4333
Au 10.0032 21.6758 10.8536
Au 17.1055 13.6504 31.314
Au 15.9418 11.0079 17.9712
Au 11.4958 16.1722 21.5562
Au 6.51115 14.0281 21.8835
Au 11.7344 14.0991 25.9715
Pd 11.6722 22.2672 28.6654
Au 17.7402 26.3424 22.5824
Au 17.8429 24.6028 25.7652
Pd 13.2378 29.1977 21.454
Au 22.6032 26.5486 28.1387
Pd 19.4915 24.3659 23.4573
Au 16.9911 33.998 22.8504
Au 23.0983 24.2312 29.4876
Pd 24.508 26.5874 23.5685
Au 21.1524 32.8532 24.0451
Au 15.5216 13.876 28.7544
Au 10.4283 19.1522 30.3911
Au 10.9059 9.39902 23.5021
Au 20.2213 10.2633 26.8221
Au 16.3137 15.5039 23.709
Au 11.891 11.1047 19.9472
Pd 24.1788 10.1638 23.2571
Au 22.4639 9.79316 25.2653
Au 23.1257 12.855 23.2262
Au 21.9827 21.9971 10.2623
Au 15.9036 31.2272 22.9353
Au 15.2256 30.6397 20.4007
Au 18.7956 26.2386 15.9798
Au 22.3656 28.9368 17.9317
Au 19.5162 28.8106 17.0663
Au 23.8972 32.1225 14.788
Pd 19.8607 28.395 14.3875
Au 21.5176 27.0598 16.1174
Pd 19.7244 10.6948 11.7083
Au 14.0034 14.298 8.761
Au 14.2801 12.5757 19.4242
Au 24.8702 11.5809 9.45712
Au 21.6511 8.73378 10.9852
Au 20.1093 10.397 16.29
Pd 23.1168 10.8672 11.4672
Pd 25.1146 12.0877 21.462
Au 24.3308 11.1115 18.906
Pd 24.5538 16.5882 19.7301
Au 26.7307 28.2587 23.8342
Pd 26.7852 15.9243 23.7632
Au 26.4179 28.7938 26.6771
Au 23.083 13.4592 25.8735
Au 27.3289 23.2625 26.1571
Au 25.3746 15.369 17.2821
Au 26.8863 25.8319 12.328
Pd 24.2029 12.8296 16.401
Au 20.6342 25.6885 13.8428
Pd 22.7871 10.3 16.7061
Au 29.5685 26.7333 11.758
Pd 13.7966 14.1424 24.0131
Pd 12.9015 24.9153 25.1391
Au 10.5895 21.8178 31.1876
Au 15.1331 21.046 23.9086
Au 19.5375 17.1283 27.0944
Pd 13.1079 19.8347 25.2515
Au 15.408 15.3906 15.0099
Pd 16.6458 26.9532 17.5496
Pd 14.6766 18.4165 16.9331
Au 14.8272 25.2653 18.5637
Au 10.4207 13.1714 14.8059
Au 10.6231 29.8835 15.129
Au 29.4369 21.1282 12.1007
Pd 31.9445 20.5454 13.7932
Au 30.074 19.9277 18.8204
Au 33.2862 21.5743 21.8108
Au 33.2213 18.9082 23.0428
Au 30.8725 25.9529 24.4087
Au 10.8089 26.6321 14.7616
Au 11.4697 19.204 15.6072
Pd 15.6026 21.8467 21.3828
Pd 7.99417 20.3045 22.7264
Pd 13.9775 30.6808 18.0519
Pd 10.4295 20.7911 21.6629
Au 8.64314 27.9808 15.6899
Au 10.5534 29.0733 24.5755
Au 14.1828 33.0142 16.5298
Au 14.4933 31.5337 25.9554
Pd 23.9311 27.9885 15.368
Pd 22.2887 28.2604 23.3345
Pd 20.3958 13.2365 22.3035
Au 10.4666 10.731 16.4098
Pd 16.3465 10.8373 20.9151
Au 21.8621 6.7195 20.512
Au 25.0999 6.41641 17.473
Au 30.598 10.8843 16.6037
Au 24.4357 8.90714 27.2373
Au 22.7911 12.5876 30.101
Au 21.252 14.2193 33.2969
Au 20.1931 19.5179 28.6752
Au 19.2329 24.2693 32.6096
Pd 20.3616 28.0373 28.5249
Pd 14.8914 9.88662 10.8242
Au 13.2635 11.9652 10.0777
Pd 20.985 14.8933 11.2808
Au 18.5084 19.3832 7.98075
Au 23.3088 24.2255 9.31619
Au 20.8746 23.7293 6.80233
Au 32.5912 21.2909 24.5555
Au 30.5695 20.7512 29.7717
Au 29.0866 16.9634 28.5758
Au 25.5465 15.957 32.5506
Au 28.9639 24.0264 24.0887
Au 28.913 19.9968 27.9562
Au 24.4954 16.948 28.1448
Au 20.2328 13.0389 30.9747
Au 24.0709 22.0003 28.1035
Pd 23.2962 21.6483 30.6668
Au 22.0165 15.2342 30.8967
Pd 22.8973 19.5123 29.2222
Pd 20.9169 20.4614 31.1055
Au 19.4483 24.0242 28.1575
Au 27.6299 19.0414 11.7394
Pd 27.1123 16.6913 10.373
Pd 22.65 21.9368 7.64609
Pd 21.6164 12.658 12.6408
Au 30.1341 22.3057 9.68464
Au 28.222 15.0014 17.0026
Au 26.0883 19.1252 9.47585
Au 24.8444 15.6399 9.21519
Au 25.2532 20.3749 12.1115
Au 23.3825 19.6352 10.1494
Au 23.0527 18.6561 13.0011
Au 22.9736 21.5141 13.024
Pd 21.187 19.6818 8.65801
Au 25.8397 29.9931 11.5114
Au 7.69373 17.4718 22.7579
Au 13.7585 15.6054 32.9731
Pd 17.3749 15.7009 29.6652
Au 18.6011 12.4095 26.361
Au 9.92035 21.2336 26.83
Pd 16.5083 16.095 32.3038
Au 13.8277 18.2155 31.6101
Pd 15.8613 18.488 33.3668
Au 15.2058 22.856 33.9352
Pd 15.6672 19.6231 26.3068
Au 17.5245 18.8096 28.1278
Au 15.1884 20.6572 31.7677
Au 16.4503 21.0522 29.3697
Au 18.1374 20.1136 31.3849
Pd 11.4451 18.3969 13.0383
Au 11.5361 23.3147 12.3421
Au 12.4909 16.882 9.44403
Pd 16.8561 10.3829 13.191
Pd 12.1766 28.9538 17.0368
Au 17.8657 23.9492 9.20751
Pd 19.3552 18.2875 10.2999
Au 17.9789 13.2512 7.17633
Au 14.1991 28.052 18.9818
Pd 15.967 18.8693 8.93673
Au 21.0327 14.31 6.63678
Au 17.6051 26.8539 13.3127
Au 17.677 20.3033 5.62049
Au 11.7167 26.5945 9.41104
Au 28.8869 26.7297 20.1289
Au 24.1884 25.9143 11.2761
Au 34.3855 23.6042 16.5757
Au 31.482 26.0238 19.304
Au 24.0443 26.9268 20.8308
Au 30.8838 28.6584 19.1867
Au 30.5255 27.4451 16.8173
Au 32.3047 21.4505 16.3058
Au 28.7504 27.6258 25.6623
Pd 26.5292 27.1633 14.7449
Au 32.0549 23.5742 18.0725
Au 27.0755 26.4264 27.7461
Au 27.8603 21.9609 19.1219
Au 30.5751 22.4159 20.1919
Au 10.0201 28.4457 12.9876
Au 17.7374 29.5711 20.9321
Pd 10.436 21.6871 16.4501
Au 14.3881 29.6681 11.145
Au 6.00837 20.1488 19.5271
Au 9.0634 28.9462 20.3787
Au 15.922 32.6456 18.5625
Au 12.0549 14.9313 16.4021
Au 12.0239 24.1154 30.6407
Au 7.78893 23.1321 27.3639
Au 8.43531 28.292 22.9619
Pd 8.4819 24.5824 25.062
Au 5.34128 15.0344 19.6472
Pd 8.74147 19.3367 15.5701
Pd 23.893 10.902 14.1732
Au 27.169 14.299 19.6552
Au 30.0424 14.1026 13.8868
Pd 31.0699 16.2112 12.6306
Au 32.3367 14.6821 19.8148
Pd 29.5158 17.5694 17.6644
Au 32.6515 18.8814 17.4761
Au 30.2736 19.6084 15.9267
Au 28.4895 13.9096 24.4932
Pd 31.6432 17.4927 19.6653
Pd 29.8418 22.1346 17.2899
Pd 29.0862 17.8793 20.4707
Pd 30.9115 17.3242 22.2958
Au 33.3801 16.5608 21.5934
Au 14.2412 8.80131 13.3267
Au 9.34545 11.5114 18.7629
Au 9.75493 9.68222 20.9804
Au 13.2483 24.673 8.35341
Au 9.42829 14.0549 17.2315
Au 13.9995 11.3984 12.7135
Au 13.4038 8.91599 23.8045
Au 5.96525 23.408 24.3143
Au 7.808 13.891 19.4306
Pd 9.56178 16.17 24.4815
Pd 8.96257 15.1474 21.9104
Au 15.9049 24.6583 21.0861
Au 5.70541 24.4637 21.6894
Pd 8.10488 21.7616 20.3585
Au 19.2146 28.9521 26.3147
Au 14.7894 27.6577 28.6965
Au 13.2142 30.3635 23.8975
Au 10.1965 28.0079 27.1217
Au 22.6127 29.0411 29.5244
Au 12.7373 26.9755 26.8553
Pd 17.7571 32.2355 20.751
Au 14.7719 28.7261 16.3755
Au 27.5977 30.4629 25.0639
Au 20.7168 30.1921 24.4985
Au 12.3835 29.7136 26.4702
Pd 22.8749 30.9825 23.0014
Au 20.3568 31.0954 21.8015
Pd 19.1342 31.7912 26.242
Au 15.7926 11.3814 30.0853
Pd 15.7148 10.6896 23.549
Au 8.84762 21.1218 29.2371
Au 13.8485 10.3885 28.3143
Au 23.8531 13.8393 32.3988
Au 18.2223 10.1844 28.6928
Pd 13.9332 12.7673 26.715
Au 18.2715 7.25947 24.6938
Au 24.9225 11.2183 25.7659
Au 21.5532 10.6824 22.4331
Au 16.1362 12.9721 25.0517
Au 28.9669 10.4402 21.7689
Au 24.606 6.86094 20.1877
Au 30.1415 10.4121 19.3462
Au 16.5185 19.3544 15.1332
Pd 20.5689 24.2525 9.41486
Au 16.5521 26.4765 8.37764
Au 10.7676 30.3328 22.1483
Pd 12.9775 25.3137 13.8023
Au 23.6017 30.3501 12.8929
Au 22.0344 29.844 15.0439
Au 8.59606 25.784 27.6348
Pd 21.1947 32.3128 14.5048
Pd 17.9779 29.6613 12.9907
Au 18.8949 31.1076 15.2198
Au 19.624 33.8498 21.9481
Au 22.7845 31.4956 19.2773
Au 22.2383 27.7696 13.0211
Au 19.1134 8.03166 11.4855
Au 12.9853 16.2427 12.1758
Au 12.5836 8.6897 15.7013
Au 15.1969 8.41024 21.9503
Au 25.7222 17.3934 7.32487
Au 18.3516 6.38339 13.4817
Au 16.6188 5.62127 15.5618
Pd 15.729 12.8447 14.0983
Au 25.6026 9.65438 11.2902
Au 22.9157 5.84772 16.0677
Pd 23.2145 9.20183 20.7217
Au 25.6564 8.7484 18.6255
Au 20.751 5.87336 17.7174
Pd 24.105 8.19847 15.5728
Au 29.7143 18.3626 26.0432
Au 30.5456 22.1503 22.9044
Pd 27.6924 16.5163 26.1969
Au 29.2149 29.5841 20.9347
Au 29.8085 15.33 19.2854
Au 25.2908 31.4729 24.0682
Pd 24.8361 13.0382 28.1242
Pd 25.1665 24.4264 27.6187
Au 26.897 10.8961 23.6562
Au 24.7779 29.2341 22.2207
Au 27.5202 10.2104 26.3921
Au 23.8226 24.0003 32.0641
Pd 28.0545 16.524 13.1226
Au 27.1178 22.1602 13.2507
Au 26.5 14.7009 14.8941
Au 23.7174 25.5276 13.9613
Au 26.3023 11.9595 14.6022
Pd 19.6426 27.8132 11.7821
Au 29.0621 13.4043 9.00243
Au 28.1071 25.9347 9.62777
Pd 27.9202 10.7888 12.614
Pd 21.6351 26.3993 10.6386
Pd 26.6264 13.9151 10.2494
Au 24.5775 20.0723 7.47336
Au 11.8224 19.7821 32.774
Au 14.3785 24.6565 32.0821
Au 7.86847 16.7284 26.4948
Pd 15.3397 25.8205 26.7318
Pd 8.30519 18.9893 25.0799
Au 16.6405 23.4334 28.0205
Au 12.3569 16.4709 24.3346
Au 10.59 23.3377 23.947
Au 8.56529 10.5173 23.3868
Au 14.821 28.568 25.8349
Pd 15.5904 16.8096 28.1101
Au 12.3964 22.315 25.8141
Pd 9.6424 23.6245 14.1183
Au 6.8304 17.3511 15.4123
Au 10.9623 15.853 14.0634
Au 12.3628 27.9281 11.5925
Au 15.1635 8.30615 17.1893
Au 18.1659 34.1395 18.8237
Au 7.14054 15.583 17.4534
Au 13.8343 19.6937 14.3003
Pd 16.834 17.9475 11.288
Au 19.1064 18.523 15.4563
Au 9.88733 16.2145 19.0972
Pd 17.309 27.2688 25.3397
Pd 32.2086 23.5156 14.5313
Au 33.8885 20.7665 12.0736
Pd 34.7394 21.0168 17.2317
Au 33.9411 18.9705 20.2149
Au 31.434 19.7758 21.1798
Au 31.2174 23.4371 25.7328
Au 32.5253 23.8813 23.4264
Au 5.47548 22.7398 16.5352
Au 8.32659 12.0398 21.2596
Pd 10.8507 11.7831 22.3549
Au 16.766 24.3302 16.3679
Au 13.9391 26.551 21.4231
Au 11.9117 19.6729 27.8689
Au 7.28673 18.2127 17.9469
Au 21.2668 26.3289 7.83824
Au 11.5415 30.8302 19.5753
Au 13.2112 32.9634 19.1248
Au 22.8046 33.0716 17.0068
Pd 24.794 29.385 19.3515
Au 20.0865 29.8876 19.4579
Au 16.8712 30.3093 25.3989
Au 13.1583 10.4539 17.5084
Au 12.0763 14.8645 30.7979
Au 17.4422 8.66607 19.7588
Au 19.8716 6.67824 22.7118
Pd 22.831 7.9483 18.1932
Au 20.574 5.34808 14.9655
Au 28.0743 8.64782 19.9435
Au 23.6325 10.0313 29.7222
Au 21.8867 8.52153 27.883
Au 20.578 16.6884 34.0882
Au 18.1434 15.5554 34.3835
Au 20.8528 19.4249 33.6761
Au 18.804 26.8534 32.4224
Au 20.5195 25.7043 30.0117
Au 20.3863 11.8754 7.5346
Au 16.3471 12.2197 11.4189
Pd 18.8138 13.3531 11.9167
Pd 19.6721 18.3643 5.83199
Au 20.4065 17.084 8.12978
Au 14.4115 17.1824 7.57067
Au 22.2936 19.3455 6.24761
Pd 29.6074 22.6456 27.96
Au 31.3087 16.3132 26.7816
Au 29.3028 14.4855 27.1802
Au 25.4027 12.2245 30.6796
Pd 22.8312 11.232 27.5431
Pd 26.6422 21.3622 27.8687
Au 28.3292 19.0216 30.4047
Au 31.2543 18.5587 28.3621
Au 26.6519 16.9649 30.3434
Pd 24.6441 14.9087 30.0688
Pd 28.0344 21.6169 30.1336
Au 25.2064 21.3694 32.4502
Au 25.9547 18.7117 32.2923
Au 23.3137 19.4393 32.4322
Au 21.5047 25.6687 32.5704
Au 25.536 19.9366 29.9746
Pd 23.9486 17.4667 30.7457
Au 23.2114 26.6753 30.8386
Pd 22.3584 21.8409 33.1664
Au 18.5211 17.995 33.0056
Au 30.1167 18.6374 13.1859
Pd 29.6729 17.6604 10.6999
Au 29.1498 19.9424 9.44861
Au 27.4746 15.3572 8.01074
Au 23.577 13.7739 10.8368
Au 33.1733 18.2175 12.5528
Pd 27.2403 21.5603 10.4531
Au 27.9756 23.455 8.45877
Pd 21.9153 17.3707 10.5409
Au 30.0717 15.9412 8.71549
Pd 28.4047 23.7575 11.3469
Pd 31.5172 19.7761 11.0122
Pd 28.2082 17.9043 8.1927
Au 23.8786 15.2789 6.73642
Au 26.0181 24.2007 10.1031
Au 25.3219 22.9978 7.4483
Pd 23.2147 17.69 8.18415
Au 27.1509 20.9395 7.8082
Au 15.2144 23.6206 9.75876
Pd 24.7033 21.8383 9.73487
Pd 8.80271 25.2063 16.0565
Au 5.89575 20.5047 24.4895
Au 11.5403 11.7619 27.5015
Pd 14.9 15.3189 26.0683
Au 20.8704 10.4622 29.6516
Au 6.63272 26.0579 23.6107
Au 14.4491 13.3371 31.6474
Au 10.6032 13.9928 28.6546
Pd 14.5963 15.8453 30.4067
Au 23.0627 16.4612 33.1945
Pd 14.2041 23.7119 23.0966
Au 14.1073 20.4025 34.2044
Au 15.5368 16.3664 34.8555
Au 15.9892 13.941 33.8848
Pd 16.7616 22.8834 31.7483
Au 13.2587 17.8772 34.2248
Au 17.0574 20.7989 33.8424
Au 12.9706 22.2782 32.4979
Au 12.1554 28.633 28.9936
Au 19.5722 21.7075 33.1344
Au 13.2791 19.5772 8.56738
Au 8.78419 17.325 13.5324
Pd 9.94156 18.9707 17.9554
Au 14.2656 13.0155 16.5296
Au 17.4204 9.78574 10.4049
Au 8.71289 24.1234 11.643
Au 17.6488 16.7262 8.7615
Au 15.6908 11.9723 8.83263
Pd 19.5173 14.5537 8.96314
Au 16.7894 14.2861 9.69884
Pd 12.4093 20.7007 12.1373
Pd 15.0703 16.3439 10.1473
Pd 18.5785 15.9121 11.2268
Pd 14.2092 13.9342 11.4804
Au 8.37495 26.2156 13.5286
Pd 14.971 20.9982 10.1759
Au 18.7794 15.7592 6.38523
Au 15.7891 22.1454 5.5677
Pd 21.0012 19.8953 11.5753
Au 16.5795 31.1978 11.3577
Au 24.1833 30.5141 16.8027
Au 28.026 26.4074 17.0114
Au 29.1406 26.8141 14.4093
Au 32.6513 25.6721 16.4533
Au 31.7316 22.5812 11.8812
Au 26.8582 30.8283 17.0608
Pd 28.2306 28.7674 18.4244
Pd 25.1746 25.6139 16.2892
Au 34.6431 22.7687 19.2352
Au 34.2102 25.1831 14.2891
Au 27.2307 30.6781 22.4198
Au 27.6844 28.5306 12.7085
Au 33.0267 27.7492 17.9939
Au 30.9857 27.5779 21.7559
Pd 27.0272 30.8194 19.7459
Au 29.2636 25.1303 26.6527
Pd 34.0818 25.3459 18.7033
Au 27.5965 24.0508 28.8502
Au 32.4122 18.7361 25.7592
Au 30.512 24.8655 21.7678
Au 13.0008 31.9327 21.668
Au 12.5515 22.0891 14.6698
Au 15.4495 26.5076 15.1048
Au 15.6139 24.6548 13.2619
Au 16.0919 31.0908 16.1542
Pd 16.7019 29.4842 18.3751
Au 12.1355 30.3227 12.7885
Au 22.2654 33.0883 21.4622
Au 7.91287 21.9321 15.3693
Pd 9.13224 25.64 22.635
Pd 14.3666 22.7457 30.0874
Au 18.7576 25.4247 7.11266
Pd 15.3934 29.5959 13.7203
Au 5.74882 25.4255 19.0119
Au 6.31286 25.3019 26.2437
Au 17.763 24.8065 18.8872
Pd 8.09534 23.1569 22.6336
Au 14.3654 30.2854 28.3379
Pd 10.156 24.0362 18.38
Au 13.3627 23.4008 20.5766
Au 28.6522 12.5059 15.5985
Au 30.4535 11.3683 13.8349
Au 32.6335 15.089 14.6957
Au 34.2476 19.3141 15.1303
Au 32.2056 17.0747 10.2779
Pd 29.149 12.7025 18.3376
Pd 26.5601 12.7067 17.4821
Pd 31.8212 16.2845 17.2849
Au 34.0953 16.5006 18.8891
Pd 34.3767 21.8748 14.5403
Au 30.2743 12.8918 20.7524
Au 33.5188 14.232 17.2475
Au 35.2811 18.5669 17.8031
Pd 34.2596 16.7363 16.1615
Au 31.3963 14.6615 22.5147
Pd 32.6495 21.0702 19.0687
Au 28.3157 18.2609 23.3055
Au 31.2445 14.0661 25.2091
Pd 32.4889 16.482 24.2838
Au 31.6044 20.9468 27.1756
Au 12.5151 11.4347 14.9145
Pd 14.4 9.52097 19.6403
Au 5.8917 17.813 24.6697
Pd 15.2391 6.9442 19.747
Au 7.81092 21.8193 12.5783
Au 8.29641 14.9491 14.8181
Au 12.1033 17.3021 17.6359
Pd 16.2605 11.6043 27.4555
Au 5.54265 21.6803 14.1026
Au 7.93717 24.4229 20.2243
Au 11.95 25.1717 22.4936
Au 17.2737 6.48103 18.0728
Au 6.20186 25.4552 16.3761
Au 10.7921 24.1733 9.81109
Pd 17.0945 12.9607 19.5451
Au 8.13034 21.879 24.9663
Au 6.95298 19.4659 13.6255
Au 5.6473 22.7831 19.3956
Au 8.11189 27.3475 25.4615
Au 11.7312 12.7249 17.7936
Pd 16.907 28.8345 27.6828
Au 13.1416 26.6036 30.6099
Au 10.5962 26.3419 24.9151
Au 9.9323 16.4518 29.8367
Au 10.5916 24.1267 26.7991
Pd 22.098 24.0889 26.9643
Au 14.3842 33.1621 23.7379
Pd 18.107 23.1033 21.1538
Au 14.3284 31.8688 12.7979
Au 13.2731 24.3591 27.9429
Pd 24.323 29.1343 24.869
Au 14.0409 29.1425 30.8499
Au 18.8942 30.3584 28.7867
Au 16.7437 32.241 13.8371
Au 20.8344 28.0779 31.2561
Au 15.1701 33.379 21.0512
Au 22.9382 31.4365 25.6246
Pd 21.9813 28.3345 26.1264
Au 18.2269 27.9389 30.082
Pd 26.8641 28.3128 20.9243
Pd 18.1578 12.9314 29.0161
Pd 12.824 11.6951 24.3518
Pd 14.6262 10.265 25.8361
Au 17.7858 9.09391 22.6126
Pd 13.6591 10.9356 21.9018
Au 18.4105 11.1346 31.193
Au 16.1277 8.83545 27.5551
Au 15.7951 8.06868 24.6828
Au 17.241 6.63916 21.8081
Au 12.3159 8.60854 21.1083
Au 18.8138 8.01115 27.2001
Pd 19.9111 9.48227 24.1294
Au 20.9052 7.42891 25.5232
Au 20.1445 8.72147 21.037
Pd 22.1465 8.06723 23.0196
Au 23.5745 7.34615 25.2118
Pd 19.9142 8.3255 18.2849
Pd 27.5741 8.33588 22.8177
Au 19.1876 6.31546 20.009
Au 23.1034 5.2061 18.6875
Au 21.0044 31.1801 17.1128
Au 13.1365 26.407 16.6779
Au 19.0935 32.0633 12.5899
Pd 21.4526 27.1561 19.7303
Au 11.6172 31.6923 17.066
Au 26.0617 27.5834 10.2364
Au 23.4312 28.7548 10.692
Au 25.8524 25.6128 7.93448
Au 19.9213 33.5586 16.6925
Au 16.4378 29.9269 30.0854
Au 21.8308 16.7465 5.91257
Au 30.0547 24.4857 13.2263
Au 18.998 26.8152 9.41013
Au 20.4098 32.8467 19.4372
Au 20.938 30.1687 12.3898
Au 15.902 24.2048 7.1911
Au 19.1822 25.0436 11.5825
Au 18.9665 30.1646 10.4969
Au 16.887 28.3935 10.751
Au 25.1676 32.3437 18.4999
Au 22.4619 10.3549 8.86842
Pd 18.9985 9.03284 14.1012
Au 13.1575 14.0615 14.0268
Au 11.6163 12.5708 12.3312
Pd 16.4939 7.91763 12.1212
Au 23.0138 12.8525 7.90206
Pd 16.5238 8.1597 14.7489
Au 14.7023 5.70218 17.4455
Au 18.892 6.9999 16.0052
Pd 12.9255 7.60637 18.3653
Pd 25.6432 13.4755 7.77612
Au 19.8821 9.72264 9.19216
Au 23.6099 8.44585 12.8793
Au 18.7031 11.0569 18.4769
Au 26.0693 9.18769 13.8922
Au 21.1773 12.4616 10.0055
Pd 19.0777 11.1443 21.0866
Au 26.8717 7.98567 16.2326
Pd 21.3679 8.04086 15.8067
Au 28.0682 10.133 17.5748
Pd 29.7821 16.2044 24.446
Au 29.4157 29.1556 23.5324
Au 30.288 12.2019 23.4179
Pd 25.5118 25.4457 30.1049
Au 29.2468 9.85899 24.3912
Au 24.9692 27.7545 28.9157
Au 31.9275 12.3566 18.4517
Au 24.8271 31.7311 21.1753
Au 29.5997 11.9635 26.0926
Au 25.6535 22.8161 30.225
Au 27.7018 12.6299 29.0738
Pd 17.71 26.2705 28.018
Au 25.9052 8.65402 24.9234
Pd 23.9613 29.7141 27.3933
Au 27.0528 14.3098 31.0659
Pd 21.2645 23.2969 31.1998
Au 24.787 7.49952 22.7577
Au 21.2712 30.5365 27.517
Au 25.9587 10.6641 28.5111
Au 16.7213 25.2741 33.1305
Au 29.105 15.0328 11.0997
Au 34.2425 23.3541 12.4003
Au 33.5141 15.5383 12.0924
Au 30.0834 24.6458 16.0748
Au 28.5174 9.786 14.9905
Pd 24.953 27.9106 12.8297
Au 32.4709 12.4328 15.3522
Au 28.2758 29.0296 15.6743
Au 31.5947 14.4363 10.4082
Au 32.4548 25.2423 12.0827
Pd 32.2224 13.2352 12.7148
Pd 27.1149 17.2954 15.8369
Au 27.714 13.4802 12.7672
Au 25.8517 29.9374 14.5446
Pd 29.871 12.4495 11.4281
Au 30.5927 24.8148 10.2327
Pd 21.7431 12.3663 15.2416
Au 31.7489 26.5854 14.1857
Au 27.513 11.4515 10.11
Au 23.3769 24.8282 6.81994
Au 5.77484 21.7712 21.983
Au 8.50251 19.0409 20.3618
Au 10.2559 11.7525 25.1442
Au 18.2841 29.0897 23.5015
Au 13.0993 15.1076 28.149
Au 13.0169 27.5763 24.0203
Au 10.821 9.12915 18.5177
Au 18.4998 31.8349 23.5726
Au 9.20806 18.6435 27.9423
Au 16.6693 33.0551 25.3834
Au 12.0244 9.6761 26.0202
Au 11.0944 25.9984 28.8457
Au 5.08919 17.6732 19.6856
Pd 17.8512 25.0867 30.4459
Au 11.4289 17.1379 32.1143
Au 15.3427 25.198 29.5726
Pd 13.1335 12.7061 29.4328
Au 16.7173 31.6127 27.7805
Au 16.3141 11.5703 32.7634
Au 15.9367 27.2052 31.3191
Au 15.2139 17.5174 13.3367
Pd 14.1033 22.0905 7.67955
Au 10.3435 16.7461 11.2267
Au 14.869 27.2299 12.446
Pd 17.6731 9.12239 16.9455
Au 7.86067 26.9068 18.1964
Au 11.2339 19.2185 10.2449
Au 10.982 27.6844 22.2002
Pd 13.1873 17.0611 15.0558
Pd 16.5805 25.6855 10.9376
Au 9.63344 14.3997 12.3687
Au 19.5747 21.8607 8.78025
Au 18.4592 12.0506 9.50913
Au 21.0161 28.7099 9.52519
Au 9.57215 16.7898 16.3259
Au 10.6727 25.9011 12.0303
Pd 22.192 15.1906 8.90612
Pd 23.6884 26.9208 8.75911
Pd 15.0021 10.4014 15.3542
Au 14.3753 27.1888 9.69739
