923
Atoms. Timestep: 20318
Au 18.983 20.1802 20.1973
Au 21.4251 20.0857 18.7655
Au 21.4131 20.0637 21.5972
Au 16.7191 20.1053 18.6096
Au 16.7698 20.5669 21.8476
Au 17.4423 22.4965 19.9971
Au 20.482 22.4573 20.2066
Au 17.6465 17.8214 20.0312
Au 20.5065 17.7934 20.2123
Au 18.9962 18.7103 22.4952
Au 19.2208 21.5628 22.6081
Au 19.1438 18.6814 17.8168
Au 19.1634 21.5043 17.8116
Pd 23.8383 20.0074 17.3351
Au 23.8489 20.0316 20.1499
Au 23.837 19.9732 22.9816
Pd 14.521 20.0939 16.9578
Au 14.5741 20.7795 20.2172
Au 14.3622 20.8573 23.2393
Pd 16.0901 24.8381 19.7102
Au 19.0769 24.8348 19.9383
Au 22.0029 24.7324 20.1401
Pd 16.1465 15.5142 20.0326
Au 19.0753 15.4116 20.0707
Au 22.0085 15.4506 20.1687
Au 19.071 17.313 24.8079
Au 19.3714 20.125 24.9606
Au 19.4563 22.9373 24.9957
Au 19.3118 17.2066 15.4551
Au 19.3645 20.0014 15.3663
Au 19.4172 22.8036 15.3759
Au 21.5333 18.5528 23.9586
Au 21.6858 21.5383 23.952
Au 21.6221 18.5809 16.3618
Au 21.6557 21.4522 16.343
Au 16.1251 16.6032 24.76
Au 16.7935 19.1516 24.2366
Pd 16.8944 18.5989 16.1848
Au 16.9569 21.411 16.1105
Pd 22.9496 22.3854 18.7218
Au 22.9587 22.4028 21.5485
Au 15.3019 22.5524 18.1589
Au 15.2463 23.125 21.9263
Au 22.9723 17.7121 18.7247
Au 22.954 17.6565 21.6428
Au 15.3141 17.7364 18.4233
Au 15.4119 18.2382 21.46
Au 17.8572 23.8725 22.3725
Au 20.6864 24.0233 22.6005
Au 17.5842 16.3369 22.3793
Au 20.5611 16.2531 22.6116
Au 17.7918 23.8807 17.5564
Au 20.7352 23.8157 17.7455
Au 17.7052 16.2944 17.684
Au 20.6652 16.2969 17.7952
Au 26.2582 19.9401 15.8972
Au 26.2736 19.9599 18.696
Au 26.2895 19.9393 21.5255
Au 26.2658 19.8735 24.3396
Au 12.6144 20.0783 14.9979
Au 13.4135 16.6037 20.3257
Au 12.3367 21.849 21.6226
Pd 9.935 19.7082 26.1647
Au 14.8573 27.241 19.341
Au 17.7863 27.242 19.5902
Pd 20.7232 27.171 19.7474
Au 23.5387 26.9952 20.0522
Au 14.8226 13.143 19.9292
Au 17.7668 13.0094 19.874
Au 20.6977 13.0265 19.9209
Au 23.5834 13.1314 20.0353
Pd 19.2725 15.8327 26.9655
Pd 19.7268 18.699 27.2505
Pd 19.8543 21.4747 27.3603
Au 19.802 24.2815 27.4163
Pd 19.5385 15.7306 13.0963
Pd 19.5821 18.508 12.9869
Pd 19.6359 21.3223 12.9204
Au 19.694 24.1214 12.9035
Pd 24.0436 18.4022 25.2999
Au 21.7425 17.0172 26.2302
Pd 24.163 21.4686 25.2701
Pd 21.9659 20.0204 26.2624
Au 22.032 22.9162 26.3149
Au 24.0512 18.5096 14.9162
Au 21.8049 17.0995 13.9646
Au 24.0673 21.3864 14.888
Au 21.8295 19.938 13.883
Au 21.8922 22.7705 13.8709
Au 12.1857 18.1731 25.9457
Au 17.2025 17.8232 26.9322
Au 14.6291 19.9006 25.8354
Pd 17.2923 20.587 26.7156
Au 16.7752 21.9632 24.3074
Au 14.8457 18.5226 14.3835
Pd 17.1603 17.0829 13.7544
Au 14.9039 21.4054 14.277
Au 17.2237 19.8903 13.6508
Au 17.2856 22.7627 13.5899
Au 24.4782 24.6659 18.6405
Au 25.3748 22.3205 17.2657
Pd 24.4846 24.7006 21.4735
Au 25.4117 22.3559 20.0868
Pd 25.4173 22.2909 22.8779
Au 14.0381 25.841 21.789
Au 13.2287 22.5713 16.2507
Au 14.6078 27.0564 24.2745
Au 11.4086 24.3004 18.27
Au 12.8123 23.9441 23.4293
Au 24.5179 15.3675 18.642
Pd 25.4001 17.647 17.2604
Au 24.5126 15.318 21.5737
Au 25.4138 17.63 20.1218
Au 25.4128 17.5473 23.0071
Au 14.0945 15.2566 18.1001
Au 13.2474 17.6324 16.4831
Pd 12.1015 12.6925 20.4867
Au 12.7543 18.8074 18.844
Au 14.0022 18.1464 23.8703
Au 18.3863 25.4451 24.5349
Au 16.658 26.2411 21.9985
Au 21.1174 25.3675 25.0982
Au 19.4018 26.5573 22.1031
Au 22.1824 26.3512 22.5223
Au 18.0468 14.6821 24.5756
Au 16.5167 13.7477 22.2587
Au 20.86 14.6499 24.967
Au 19.3661 13.7737 22.3167
Au 22.2067 13.8902 22.5185
Pd 18.1076 25.1915 15.0498
Au 16.5135 26.263 17.1986
Au 20.9745 25.1348 15.279
Au 19.394 26.2429 17.4265
Pd 22.2805 26.0832 17.6389
Au 17.953 14.8098 15.2617
Au 16.4397 13.8861 17.5819
Au 20.8836 14.8249 15.3771
Au 19.3191 13.8725 17.5989
Au 22.2364 13.9426 17.6786
Au 23.1555 16.0677 24.0198
Au 23.2532 23.8916 23.8987
Au 23.1752 16.2021 16.2919
Pd 23.1989 23.7605 16.2592
Pd 12.9399 15.7282 24.7061
Au 15.6117 24.5727 24.2911
Pd 15.5579 16.1642 15.8917
Au 15.6763 23.8824 15.6537
Au 28.6791 19.8711 14.4325
Pd 28.7265 19.8944 17.2257
Au 28.7481 19.87 20.0145
Au 28.7735 19.8214 22.8026
Au 28.7757 19.7974 25.567
Pd 10.4909 20.0578 13.1727
Au 12.5128 21.461 18.5887
Au 6.01581 16.5298 19.5696
Au 7.20283 16.7807 24.672
Au 8.14483 19.7634 28.1189
Au 10.7175 28.2155 19.1642
Au 16.3568 29.5818 19.1187
Au 19.4348 29.5956 19.2997
Au 22.306 29.4909 19.5219
Au 25.0505 29.2957 19.9718
Au 13.6737 13.2689 22.6758
Au 15.3934 11.2376 22.0339
Au 19.5126 10.5552 19.7208
Au 22.3442 10.6499 19.7951
Au 25.186 10.81 19.876
Au 18.6858 14.5505 29.1597
Pd 19.395 17.2406 29.4752
Au 20.2527 20.0456 29.7117
Au 20.3067 22.8213 29.7972
Au 20.1907 25.7278 29.7511
Au 19.7341 14.2644 10.7508
Pd 19.7774 17.0339 10.6332
Au 19.8437 19.8293 10.5545
Au 19.9079 22.6524 10.4721
Pd 19.9444 25.4528 10.437
Au 26.5354 18.2519 26.6966
Au 24.2894 16.8463 27.6247
Pd 21.4859 15.6269 28.5657
Au 26.6698 21.396 26.6413
Au 24.4748 19.9198 27.5578
Au 22.1908 18.4711 28.5512
Pd 24.5719 22.8573 27.6082
Au 22.4353 21.3981 28.6599
Pd 22.4225 24.2654 28.6652
Au 26.467 18.4287 13.45
Pd 24.2337 17.0245 12.5248
Au 22.007 15.6411 11.6184
Au 26.4951 21.3265 13.4179
Au 24.2621 19.8785 12.4376
Pd 22.0439 18.4468 11.5082
Pd 24.3121 22.7327 12.4231
Pd 22.0935 21.2859 11.4444
Pd 22.1414 24.1076 11.4313
Au 8.20414 14.657 26.1259
Au 14.4321 16.8528 26.8853
Pd 16.5583 16.9044 29.4355
Pd 12.2669 20.7245 26.9667
Au 15.1871 19.1795 28.316
Au 17.6829 19.4371 29.2941
Au 14.0687 22.6107 25.4507
Au 17.7287 22.3203 28.9065
Au 17.1822 23.5694 26.4902
Au 12.7004 18.5044 12.5395
Pd 15.0408 17.0215 11.9876
Au 17.3522 15.5755 11.3977
Au 12.7792 21.3844 12.3915
Au 15.0917 19.8687 11.8296
Au 17.4209 18.4015 11.2473
Au 15.1658 22.7433 11.7343
Au 17.4822 21.245 11.1413
Au 17.5449 24.1137 11.0811
Pd 26.0311 26.9228 18.5541
Pd 26.9523 24.6007 17.1655
Au 27.8487 22.2509 15.791
Au 26.0679 26.9748 21.3787
Au 26.9922 24.6239 19.9757
Au 27.8894 22.2673 18.5895
Au 27.0148 24.5789 22.7666
Au 27.9211 22.258 21.3888
Au 27.9221 22.1926 24.1801
Au 14.3128 26.2768 15.173
Au 11.8761 24.8814 15.6481
Au 11.1255 22.4613 14.3731
Pd 10.1762 19.7289 18.7476
Au 7.84737 23.1988 18.2385
Au 10.3595 22.1838 16.9889
Au 9.98021 22.3117 23.0753
Au 5.6672 19.3182 20.5303
Au 11.7334 20.3753 24.126
Au 26.0951 13.0384 18.5281
Au 26.9626 15.3015 17.1648
Au 27.8322 17.5765 15.7869
Au 26.0936 13.0261 21.4304
Au 27.0004 15.2788 20.0426
Au 27.8685 17.5795 18.6251
Pd 26.9717 15.2236 22.9048
Au 27.8815 17.5128 21.4717
Au 27.8553 17.4455 24.3075
Au 9.92384 10.2806 15.9817
Au 11.99 15.1901 16.3722
Au 11.1868 17.5779 14.653
Au 11.0681 10.6525 25.4083
Au 11.5504 10.5064 18.3267
Au 11.395 15.0701 19.1637
Au 10.9846 12.3147 23.0102
Au 8.06695 18.3271 21.0664
Pd 11.3414 17.6266 23.3489
Au 19.1027 26.9297 26.786
Au 17.3034 27.9458 23.9956
Pd 15.4394 28.642 21.6256
Au 21.6591 26.7794 27.5985
Pd 20.1148 27.9071 24.3497
Au 18.1745 29.0996 21.6779
Au 22.7588 27.6421 25.0326
Pd 21.0029 28.9451 21.9021
Au 23.8028 28.5427 22.4674
Au 18.4425 13.0947 26.6639
Au 12.5083 13.0942 25.3194
Au 16.9519 12.0283 24.4168
Au 21.1103 13.0362 27.2951
Au 19.7751 12.0741 24.5237
Au 18.217 11.244 22.0909
Pd 22.5219 12.3004 24.7933
Au 21.0433 11.3561 22.1828
Au 23.8273 11.5649 22.3359
Au 18.3753 26.5297 12.5402
Au 16.7864 27.5521 14.6413
Au 15.0817 28.5809 16.7099
Au 21.2225 26.466 12.7747
Au 19.6463 27.5816 14.9072
Au 18.02 28.6656 17.0074
Au 22.5227 27.4321 15.1353
Pd 20.9745 28.5225 17.2164
Au 23.8416 28.3378 17.4971
Pd 18.1549 13.3133 12.8869
Au 16.7236 12.3695 15.1622
Au 15.4645 9.91584 15.0777
Au 21.0828 13.3636 13.0127
Au 19.5667 12.3663 15.1899
Au 18.0832 11.404 17.4335
Pd 22.4415 12.472 15.2827
Pd 20.9365 11.4819 17.4762
Au 23.7996 11.6206 17.5566
Pd 25.6264 15.9308 25.3595
Au 25.7947 23.7611 25.2166
Pd 24.7376 13.7527 23.9113
Au 24.847 26.1733 23.8372
Au 23.3729 14.5055 26.4253
Au 23.696 25.2389 26.3397
Au 25.5975 16.1288 14.8218
Au 25.6488 23.7093 14.7832
Pd 24.7147 13.8625 16.1921
Au 24.7615 26.0382 16.153
Pd 23.3639 14.7284 13.8973
Au 23.4523 25.0984 13.7741
Pd 11.798 15.6813 27.2089
Pd 9.8587 24.9696 23.594
Au 14.6846 15.7706 22.5336
Au 12.017 26.6842 23.5161
Au 15.1908 14.0816 24.9649
Pd 12.4601 28.5961 21.308
Au 13.3985 16.0636 14.0549
Pd 13.5773 23.8456 13.7306
Pd 12.8234 12.8502 17.9093
Au 12.2216 26.2898 13.1884
Au 15.7243 14.6279 13.4789
Au 15.9512 25.2064 13.1391
Au 31.0752 19.8046 12.9889
Pd 31.1155 19.8373 15.7548
Au 31.174 19.8152 18.5298
Au 31.2336 19.7556 21.2963
Au 31.2878 19.7491 24.0452
Au 31.3047 19.7408 26.7898
Au 8.01472 19.8717 14.2961
Au 8.65486 17.4036 15.7766
Pd 13.5071 23.6841 19.9806
Pd 6.34796 16.4772 16.8098
Pd 5.65642 20.8309 18.2323
Pd 7.21343 19.2374 25.7273
Au 11.5847 30.886 14.3453
Au 13.9653 30.8894 20.8366
Au 17.9267 31.9092 18.8089
Au 21.1206 31.9457 19.1339
Pd 24.0971 32.0591 19.2594
Pd 26.7758 31.318 20.0183
Pd 15.2187 11.483 17.4239
Au 15.4657 8.09338 19.6191
Pd 18.2884 8.11044 19.6219
Au 21.099 8.17227 19.6473
Au 23.94 8.28619 19.7022
Au 26.74 8.48133 19.7387
Au 21.6032 11.1336 31.8884
Au 20.5789 15.5145 31.3797
Au 20.1076 18.4173 31.8662
Au 20.733 21.3405 32.2516
Au 20.694 24.1698 32.1472
Pd 18.1521 24.0778 31.0313
Pd 19.9055 12.8184 8.42783
Au 19.9513 15.563 8.26802
Pd 20.0154 18.3639 8.19738
Au 20.0748 21.1699 8.06992
Au 20.1356 23.9858 8.01491
Au 18.0879 26.7686 6.28084
Au 29.0799 18.2738 27.8947
Au 26.8412 16.6507 29.1848
Au 23.8706 15.1105 29.6783
Au 21.4331 13.3362 30.117
Au 29.2271 21.2957 27.8822
Au 27.0769 19.8678 28.9828
Au 24.8369 18.482 29.884
Au 22.5432 17.2145 30.9082
Au 27.1347 22.8629 29.0348
Pd 24.9508 21.3496 29.94
Au 22.776 19.9194 31.1216
Pd 24.9722 24.1769 29.9339
Pd 22.8619 22.7532 31.0664
Au 22.8112 25.5433 31.003
Au 28.8849 18.3671 12.0093
Pd 26.6342 16.9606 11.0921
Pd 24.408 15.5676 10.1844
Pd 22.1854 14.1811 9.27042
Au 28.934 21.2632 11.9614
Au 26.7125 19.8007 10.9602
Au 24.4824 18.3749 10.0478
Au 22.2279 16.9746 9.12372
Au 26.7443 22.6887 10.9727
Au 24.5152 21.2381 9.97968
Au 22.2853 19.7941 9.05175
Au 24.5575 24.0751 9.97881
Pd 22.3448 22.6241 8.99579
Au 22.3645 25.4471 9.0036
Au 11.8714 13.7804 29.2289
Au 12.8038 16.6991 32.1957
Pd 13.8843 15.9956 29.4366
Au 17.9923 15.8967 31.5978
Au 10.0649 17.8053 28.1615
Pd 12.6447 18.2996 28.6169
Au 14.5208 18.4849 30.8014
Pd 17.1904 18.4549 31.9946
Au 13.13 20.8815 29.5896
Pd 15.6578 21.0304 30.5287
Au 18.1629 21.1767 31.4397
Au 15.1684 21.9166 27.8846
Au 18.5727 22.8856 33.5586
Au 18.0226 26.9822 30.9028
Pd 9.07153 17.7001 12.9205
Au 12.9627 17.1154 10.1604
Au 15.2653 15.6319 9.58594
Pd 15.8071 13.102 11.1365
Pd 10.5793 18.5625 10.7514
Au 11.3506 14.9696 9.7305
Pd 15.3038 18.4431 9.42121
Au 17.6241 16.9634 8.85203
Au 12.977 19.8977 9.99754
Pd 15.352 21.2431 9.31128
Au 17.6685 19.7732 8.71782
Au 15.4084 24.0841 9.22801
Au 17.7123 22.5931 8.61927
Au 17.7951 25.4679 8.61622
Au 27.5962 29.1346 18.4634
Au 28.4996 26.8608 17.0622
Au 29.4247 24.5523 15.6792
Au 30.3081 22.1864 14.3095
Au 27.7896 29.1305 21.3342
Au 28.6157 26.8409 19.8789
Au 29.507 24.5458 18.4901
Au 30.3938 22.2046 17.112
Au 28.7113 26.7928 22.6906
Pd 29.5707 24.5172 21.2744
Au 30.4227 22.1978 19.8944
Au 29.6026 24.4469 24.0711
Au 30.4663 22.1552 22.6707
Au 30.5045 22.1243 25.4704
Au 14.0499 25.0315 17.6734
Au 7.58598 26.6798 15.1989
Pd 9.12283 22.5189 12.4824
Au 11.8026 25.1664 9.37053
Au 9.21768 24.9736 16.5807
Au 8.33609 21.6053 25.1386
Au 8.82835 27.5753 23.7446
Au 7.24881 24.4945 13.2465
Au 8.29374 23.4678 21.1231
Au 10.2279 22.2786 19.7849
Au 7.91413 20.7807 19.7865
Pd 12.7729 25.382 25.9455
Au 10.7366 17.5062 20.5046
Pd 10.1712 20.0601 21.5197
Pd 27.6417 10.7221 18.4213
Au 28.5429 12.9575 17.0839
Au 29.4163 15.2407 15.6933
Pd 30.2369 17.5207 14.3323
Au 27.6683 10.7012 21.2662
Pd 28.5672 12.9572 19.9249
Au 29.4727 15.2203 18.5623
Au 30.3139 17.5204 17.1455
Au 28.5574 12.9422 22.7676
Pd 29.4452 15.1873 21.378
Pd 30.3284 17.4697 19.9675
Pd 29.4088 15.1615 24.2033
Pd 30.3329 17.4361 22.7406
Au 30.3617 17.399 25.5169
Au 10.6309 8.06934 17.7448
Au 8.82385 10.0272 18.3753
Au 8.9435 12.6963 14.0393
Au 4.85109 18.3414 18.1392
Au 14.1591 5.79025 19.6164
Au 9.70738 9.9152 23.0943
Au 7.48416 12.0436 19.5063
Au 8.66907 15.9512 19.5505
Au 7.86316 11.9111 22.3009
Pd 9.95256 12.8323 18.593
Pd 7.72443 18.3227 18.2962
Au 11.7907 15.187 22.0631
Au 6.26048 18.9416 23.2072
Pd 9.74957 16.9596 25.5769
Au 19.5199 28.4131 29.0271
Au 18.0982 29.3984 26.1313
Au 13.7732 29.5106 23.4893
Au 9.63157 29.5854 21.3866
Au 22.1745 28.0299 30.0847
Au 20.8538 29.4055 26.5897
Pd 19.2508 30.4605 23.8765
Au 16.4389 30.4874 23.7575
Au 23.3928 28.9398 27.4709
Au 22.0143 30.2393 24.1141
Au 19.7528 31.454 21.416
Pd 24.559 29.721 24.9672
Au 23.0183 31.1381 21.5989
Pd 25.6613 30.5305 22.4674
Au 18.8399 11.7201 28.9374
Pd 16.2693 12.4097 28.0987
Au 17.1881 10.3734 26.6178
Au 15.667 9.52645 24.343
Au 21.396 10.7888 29.2267
Au 19.9143 10.3668 26.7629
Pd 18.4857 9.52734 24.3508
Au 16.9976 8.73265 21.9985
Au 22.6938 10.4589 26.8136
Au 21.2799 9.64441 24.412
Au 19.7882 8.80847 22.0181
Au 24.0781 9.87795 24.4904
Au 22.6129 8.93659 22.0775
Au 25.4154 9.16686 22.1152
Au 18.6257 27.8675 10.0573
Pd 17.0354 28.9054 12.1316
Au 12.9197 28.6591 14.7779
Au 12.4121 27.2326 17.1788
Pd 21.4453 27.789 10.3331
Au 19.898 28.9482 12.3855
Au 18.2784 29.9938 14.4647
Au 18.2393 33.1716 16.256
Pd 22.7545 28.7674 12.6513
Pd 21.2025 29.9017 14.7013
Au 19.6449 30.9442 16.7901
Au 24.0794 29.7075 14.9769
Au 22.5397 30.8647 17.0193
Au 25.4146 30.601 17.3884
Au 18.3028 11.857 10.5275
Au 16.9728 10.8316 12.7934
Au 15.7893 8.36905 12.7735
Au 12.6561 8.09251 19.6415
Au 21.2648 11.8995 10.6304
Au 19.7633 10.8659 12.798
Au 18.3004 9.83867 15.0656
Pd 16.8246 8.94849 17.3193
Au 22.6279 11.0092 12.9149
Au 21.1343 9.94674 15.1063
Pd 19.6692 9.00046 17.3493
Au 23.9877 10.1204 15.1801
Au 22.5077 9.10153 17.3858
Pd 25.3568 9.29164 17.4688
Au 28.081 15.8547 26.6925
Au 28.388 23.6661 26.5709
Pd 27.2178 13.6622 25.2138
Au 27.5172 25.9918 25.1836
Au 26.3498 11.4152 23.7229
Au 26.6247 28.3228 23.834
Pd 25.8709 14.3109 27.7922
Pd 26.2725 25.1088 27.6068
Au 25.0381 12.1043 26.1478
Au 25.4344 27.4467 26.3146
Au 23.6354 12.5499 28.5158
Au 24.2189 26.5703 28.7734
Pd 28.0384 16.0568 13.3499
Au 28.1295 23.6915 13.2823
Au 27.1675 13.7857 14.7176
Au 27.2193 26.0258 14.6701
Au 26.2864 11.5213 16.0809
Pd 26.3174 28.3167 16.0297
Au 25.7786 14.66 12.4297
Au 25.9102 25.0909 12.2976
Pd 24.8905 12.4019 13.8138
Pd 25.0053 27.4168 13.6645
Pd 23.5369 13.2759 11.5339
Au 23.7028 26.4786 11.3052
Au 9.09736 16.3374 22.5799
Au 11.1336 22.849 29.8353
Au 10.3603 14.6132 24.4324
Pd 14.9163 24.7116 27.4311
Pd 13.2808 10.8212 23.8156
Au 10.9151 29.1617 23.8241
Au 14.0193 13.9744 27.5553
Au 11.1088 24.386 21.2713
Au 14.1231 12.1709 29.7609
Au 12.5571 28.3409 25.7921
Pd 16.578 15.097 27.2571
Au 17.5382 25.44 28.6378
Pd 10.0442 15.1519 14.4899
Au 10.6064 21.3375 10.5596
Au 14.2901 13.6653 15.7226
Au 9.74678 24.9496 13.7721
Au 13.9589 9.06402 17.3417
Au 10.4946 27.2315 15.157
Au 10.3868 13.4836 11.8525
Au 11.508 23.8401 11.8778
Pd 14.5478 12.0678 13.4518
Au 14.6072 27.6207 12.6718
Au 13.4639 14.6267 11.635
Pd 13.8506 25.1914 11.2344
Pd 33.324 19.7637 11.6424
Au 33.4534 19.7787 14.344
Pd 33.4381 19.7756 17.0899
Au 33.5552 19.7337 19.8398
Au 33.6275 19.6983 22.5914
Au 33.6947 19.6767 25.338
Au 33.6773 19.6893 27.9991
Au 5.2385 23.4695 18.027
Au 8.28095 15.1356 12.6121
Pd 10.6428 17.3097 17.6626
Au 13.6473 30.9529 16.2652
Au 7.68676 25.9549 22.0285
Au 8.7474 24.2183 25.9067
Au 8.98186 19.0143 23.7191
Au 13.3496 29.445 18.6327
Au 14.1535 32.2162 23.1663
Au 11.352 30.8692 19.6845
Au 16.6124 31.4106 21.2179
Pd 22.2145 34.2913 18.5795
Au 24.8098 34.7209 18.6152
Au 28.4143 33.419 19.9441
Au 6.29929 16.4919 22.1921
Au 16.6801 10.5241 19.6797
Au 16.9799 5.75512 19.5975
Au 19.8216 5.81471 19.574
Pd 22.6466 5.95458 19.5864
Au 25.4678 6.01861 19.6226
Au 28.1923 6.26457 19.6617
Au 19.4757 11.7449 33.4513
Au 21.4756 13.5351 33.018
Au 21.5144 16.5185 33.6843
Au 21.4047 19.3756 34.0632
Au 21.165 22.7533 34.4642
Au 23.2806 24.139 33.4219
Au 18.6208 25.5971 33.2675
Au 20.034 11.4065 6.17944
Au 20.0787 14.1026 5.98017
Pd 20.156 16.8956 5.95376
Pd 20.2233 19.6885 5.85031
Au 20.2906 22.5099 5.70215
Au 20.3364 25.3182 5.69364
Au 22.5164 26.7561 6.65633
Pd 31.6066 18.3239 29.0343
Au 29.5977 16.9031 30.0834
Au 27.9917 15.7702 31.6718
Au 26.1006 14.3051 30.784
Pd 23.8017 12.825 31.3272
Pd 31.6917 21.2139 29.0416
Au 29.6609 19.8478 30.216
Au 27.584 18.4723 31.2893
Au 25.5089 16.798 31.8424
Pd 23.4811 15.2125 32.4216
Pd 29.6035 22.6979 30.0867
Au 27.5297 21.3438 31.2649
Au 25.4186 19.9288 32.2481
Au 23.613 18.1993 33.213
Au 26.7 26.3937 29.9702
Au 25.3786 22.7534 32.2493
Pd 23.2931 21.3169 33.3912
Au 24.6854 27.9337 31.0841
Pd 25.2703 25.5237 32.1745
Au 23.1336 26.9318 33.165
Au 31.2302 18.3619 10.6277
Pd 28.9705 16.953 9.73741
Au 26.7556 15.5386 8.80156
Au 24.5355 14.1299 7.88406
Au 22.2835 12.7277 6.97764
Au 31.2776 21.1896 10.5897
Pd 29.0877 19.7741 9.60566
Au 26.874 18.3344 8.61911
Pd 24.6102 16.9167 7.7435
Au 22.3772 15.505 6.78108
Pd 29.0897 22.6073 9.64155
Pd 26.9077 21.1873 8.60932
Pd 24.6744 19.7444 7.66808
Au 22.4314 18.3252 6.70582
Au 26.9342 24.0114 8.60698
Au 24.75 22.5741 7.56282
Pd 22.4883 21.1385 6.67624
Au 24.7379 25.4064 7.60058
Au 22.5553 23.9538 6.56361
Pd 20.1769 26.7814 8.00407
Pd 7.57512 21.1011 22.4494
Au 9.42828 15.1991 28.4219
Au 15.3327 16.099 31.8516
Pd 16.6999 16.0479 34.0495
Au 16.5615 13.6674 32.5964
Au 10.2996 26.585 25.7606
Au 11.809 18.9165 31.1627
Au 11.2781 16.3112 30.0794
Pd 14.7285 18.197 33.4452
Au 19.0516 14.5315 33.7353
Pd 12.7644 23.1468 27.8192
Au 13.6333 20.5664 32.3495
Au 16.8866 18.5415 34.9108
Au 19.0298 17.3095 34.0316
Pd 13.4915 23.0177 31.1528
Au 16.1327 20.5321 33.3662
Au 18.8171 20.1106 33.9101
Au 15.6064 23.8553 29.9046
Au 21.1455 25.5243 34.3421
Au 16.1434 25.5323 32.191
Au 11.0415 22.7156 8.22943
Au 13.1665 15.7134 7.77425
Pd 11.2531 12.4028 9.4305
Au 15.4706 14.16 7.27583
Au 16.0434 11.7059 8.79744
Au 8.33243 20.0642 11.6014
Au 10.9706 17.2802 8.40216
Au 13.2324 18.4868 7.59815
Pd 17.7898 15.4884 6.57987
Au 17.7337 12.7006 6.75713
Pd 10.983 19.9563 8.27981
Pd 13.2801 21.2544 7.56615
Pd 15.5197 16.9699 7.12102
Pd 17.8664 18.2986 6.4468
Au 13.3606 24.0357 7.47435
Pd 15.5749 19.7774 6.98958
Au 17.911 21.1047 6.2548
Au 15.6006 22.5777 6.83122
Pd 17.9793 23.9514 6.24502
Au 16.1887 26.5821 10.6325
Au 29.0732 31.3591 18.4086
Au 29.977 29.103 17.0041
Au 30.8812 26.8145 15.6223
Au 31.7862 24.4654 14.2436
Au 32.642 22.0905 12.8893
Au 29.4146 31.2655 21.1989
Pd 30.1232 29.0762 19.7539
Pd 30.9811 26.8145 18.376
Au 31.9323 24.521 17.0164
Au 32.7787 22.1355 15.661
Au 30.3107 28.9718 22.5588
Au 31.1356 26.7709 21.1504
Au 31.9917 24.4837 19.7961
Au 32.8369 22.1261 18.4426
Pd 31.1392 26.64 23.9376
Au 32.0518 24.4275 22.5654
Pd 32.8297 22.0698 21.2053
Au 32.0626 24.3535 25.3401
Au 32.947 22.064 23.9677
Au 32.949 22.0124 26.7309
Au 7.98141 27.8087 19.9304
Au 9.49093 23.8456 10.1323
Au 9.20592 29.44 14.8692
Au 8.61935 27.4068 12.9869
Au 6.65843 21.8343 13.1224
Pd 8.93659 27.7925 17.2651
Au 16.5363 31.0341 16.4711
Au 20.6449 34.0241 20.9938
Au 6.92758 26.0516 17.8256
Pd 8.43227 22.6515 15.0978
Pd 12.3782 26.2731 19.7752
Au 11.0826 29.7635 16.8482
Pd 13.2947 29.957 12.3168
Au 6.27951 24.9046 20.0565
Au 9.63861 22.1281 27.5499
Au 10.1791 26.947 21.5265
Pd 9.19336 25.4875 19.3714
Au 10.5414 20.2462 29.1938
Pd 10.2348 19.6514 16.0165
Au 7.41351 23.6573 23.6117
Au 29.1311 8.43582 18.3565
Au 30.0114 10.6798 17.0367
Au 30.8978 12.9477 15.6717
Au 31.7536 15.24 14.2981
Au 32.5858 17.5034 12.94
Pd 29.0907 8.41043 21.1278
Pd 30.0359 10.6555 19.8174
Pd 30.9404 12.9114 18.4824
Au 31.8671 15.1855 17.1014
Pd 32.6335 17.5046 15.7081
Au 30.0272 10.6287 22.6158
Au 30.9716 12.8721 21.2826
Au 31.8652 15.1475 19.9244
Pd 32.6736 17.4648 18.5085
Au 30.9182 12.8851 24.0879
Pd 31.8003 15.1355 22.7003
Au 32.7525 17.4007 21.2842
Au 31.8336 15.1167 25.4489
Pd 32.7408 17.3883 24.0339
Au 32.7956 17.3918 26.7677
Au 11.0936 11.0624 13.6522
Pd 10.7845 12.7906 16.037
Au 8.1321 12.3035 16.6633
Pd 9.28343 14.9908 17.0823
Au 6.74628 17.037 14.0439
Au 10.3759 13.1357 26.9478
Au 12.889 6.63192 17.2774
Pd 12.0301 10.1139 21.5329
Au 9.77124 11.1277 20.6426
Au 5.86338 21.738 15.6843
Au 9.49815 13.8744 21.1969
Au 10.1516 8.51029 20.4392
Au 6.09074 19.006 15.9204
Au 8.01408 20.6838 16.9978
Pd 7.66329 14.3002 23.4893
Au 7.65337 17.1069 27.334
Au 6.9285 14.2516 18.127
Au 6.81597 14.2106 20.89
Au 5.83579 22.2852 20.5335
Au 6.44809 24.3266 15.8051
Pd 21.224 30.348 29.4012
Au 16.5471 30.9081 27.6669
Au 15.1423 31.9469 25.6283
Au 12.611 31.0596 25.1685
Au 11.6902 27.0547 28.0208
Pd 20.6145 26.9966 32.0843
Au 19.2481 31.1806 27.8251
Pd 17.8733 32.1068 25.5857
Au 19.2453 33.2281 23.4257
Au 16.6215 33.1566 23.3814
Pd 22.4758 31.4834 27.492
Au 20.6456 32.1091 25.6136
Au 21.8887 32.9294 23.2273
Au 11.7445 31.1968 22.3831
Au 23.5917 32.2339 25.2675
Au 24.7336 32.9768 22.9908
Au 23.2811 33.981 20.9862
Pd 26.2774 31.7672 24.8696
Au 25.9292 33.7801 20.6988
Pd 27.4437 32.557 22.4618
Pd 16.701 11.5849 30.6693
Pd 17.3937 9.40317 29.0342
Pd 15.8039 8.06168 26.5808
Au 14.3029 7.19274 24.2712
Pd 14.2631 8.78961 22.0226
Au 19.1544 10.2455 31.1188
Au 19.9324 8.59582 28.8953
Au 18.5176 7.92635 26.6355
Au 17.1023 7.10141 24.2836
Au 15.6012 6.33915 21.9448
Au 22.7544 8.51242 28.77
Pd 21.3021 7.96248 26.5445
Au 19.9085 7.14858 24.2681
Au 18.461 6.36784 21.9151
Pd 24.094 8.09159 26.4709
Au 22.7295 7.2553 24.2503
Pd 21.2814 6.51408 21.905
Pd 25.5292 7.57119 24.2314
Au 24.117 6.59494 21.9503
Au 26.9025 6.85692 21.9569
Au 18.8852 29.1123 7.67131
Au 17.2924 30.1958 9.68721
Au 15.6725 31.1993 11.7751
Pd 15.4091 29.8451 14.2073
Au 8.95388 30.0916 18.6999
Au 21.6459 29.0526 7.95505
Au 20.1293 30.245 9.9112
Au 18.4912 31.3042 11.9489
Au 16.8484 32.2689 14.009
Au 15.034 31.8415 18.5559
Au 22.9657 30.0349 10.2274
Au 21.4495 31.2149 12.1956
Au 19.8105 32.2662 14.1855
Au 18.0229 33.6492 20.9639
Au 24.3172 30.984 12.5518
Au 22.7435 32.1591 14.4567
Au 21.0917 33.2277 16.4153
Au 25.6416 31.9027 14.9508
Au 23.986 33.143 16.6982
Au 26.6829 32.9193 17.8149
Au 18.5331 10.4514 8.23175
Pd 17.2353 9.40262 10.4537
Au 17.0811 7.39169 15.0131
Au 11.9589 8.63891 15.4594
Pd 13.9271 10.5849 19.7014
Au 21.3749 10.4705 8.32309
Pd 19.9434 9.48824 10.4642
Au 18.5335 8.37323 12.6922
Au 18.4137 6.56974 17.3043
Pd 14.3538 7.49943 15.0556
Pd 22.7392 9.63608 10.6064
Au 21.3218 8.49873 12.7284
Au 19.8729 7.47399 15.0135
Au 15.6071 6.51659 17.3027
Au 24.1162 8.7085 12.8524
Au 22.6859 7.60012 15.0396
Pd 21.2248 6.69733 17.3152
Au 25.484 7.83975 15.1489
Pd 24.0578 6.83382 17.3457
Au 26.8536 6.99312 17.4172
Pd 30.6062 15.8964 27.7936
Au 30.9229 23.6032 27.818
Au 29.67 13.6006 26.5104
Pd 30.0167 25.8645 26.4349
Au 28.7904 11.3105 25.041
Au 29.2047 28.1728 25.1151
Au 27.8702 9.02759 23.5152
Au 28.3602 30.4267 23.7734
Au 28.3789 14.3817 29.0076
Au 28.8144 25.0612 28.8759
Au 27.5058 12.041 27.3846
Pd 27.9432 27.2947 27.5503
Au 26.5534 9.6772 25.8315
Pd 27.133 29.5698 26.2233
Au 26.0298 12.0043 29.6135
Pd 25.9281 28.7445 28.6814
Au 25.126 10.0295 28.0564
Au 25.1405 31.0382 27.3186
Au 23.8382 10.3743 30.3742
Au 23.8971 30.2252 29.701
Au 30.4355 16.0308 11.936
Au 30.5338 23.6091 11.8489
Au 29.5823 13.7382 13.2851
Au 29.6558 26.002 13.2317
Au 28.7128 11.4572 14.6592
Pd 28.72 28.2865 14.6583
Au 27.8017 9.19768 16.0392
Au 27.8367 30.614 16.037
Au 28.1707 14.6079 10.9973
Au 28.3374 25.0431 10.8552
Pd 27.2698 12.3582 12.3882
Pd 27.4244 27.3632 12.2716
Au 26.4154 10.0609 13.7136
Au 26.5688 29.6746 13.6026
Pd 25.8974 13.2395 10.1169
Au 26.1414 26.434 9.86823
Pd 25.0126 10.9785 11.4889
Au 25.2476 28.7578 11.2346
Au 23.6896 11.8147 9.18948
Au 23.911 27.8005 8.86977
Au 12.5149 11.4653 27.6575
Au 12.7607 19.1222 21.5766
Au 11.9356 8.45858 23.7225
Au 10.609 24.6894 27.8135
Au 8.91438 12.2194 24.7883
Au 15.3594 26.5793 29.9175
Au 12.8106 6.6242 21.9028
Au 14.2555 27.3509 27.6388
Au 13.5282 14.1725 31.4027
Au 13.0175 25.195 29.4588
Au 13.3506 9.16629 26.0457
Au 11.1843 22.9836 25.4787
Au 14.7067 11.5729 26.0341
Pd 15.2723 29.2222 25.9273
Au 16.0186 14.2259 29.9903
Au 15.9745 22.9556 32.475
Pd 14.8806 10.0406 28.2448
Au 16.4607 26.5628 26.2431
Au 18.9355 13.0826 31.3668
Au 16.8659 28.2912 28.3927
Au 12.2171 13.5437 13.862
Pd 13.0758 22.7177 9.92555
Au 7.41408 14.631 15.1738
Au 10.217 26.2371 11.2697
Pd 12.9695 11.1483 15.6927
Au 10.9201 28.7271 12.7572
Au 14.8892 10.4316 11.1124
Au 14.0625 32.0544 13.8525
Pd 11.1656 16.1295 12.1779
Pd 14.1372 26.5133 8.80855
Au 13.3639 9.57578 13.2972
Au 16.4554 27.9074 8.17993
Au 13.408 10.8911 9.05112
Au 19.4755 34.0642 18.5327
Au 12.6749 11.9093 11.527
Au 15.7195 25.4285 6.846
Pd 17.5227 14.1263 9.05127
Pd 12.5685 27.5981 10.7969
Pd 13.7392 13.4351 9.24776
Au 14.8803 28.9755 10.2345
