923
Atoms. Timestep: 20794
Au 20.0924 22.6493 23.7503
Au 21.1508 20.1839 24.7853
Au 13.1305 25.2584 22.6731
Au 20.7853 24.3962 19.8751
Au 11.1207 17.5158 18.5704
Au 11.7382 22.0609 21.292
Au 23.9565 30.2509 18.1544
Au 8.65144 19.9783 15.0898
Au 24.1749 19.884 24.9787
Au 25.6298 16.2553 19.2401
Au 15.7244 16.4065 18.2061
Au 14.2968 21.2411 10.2303
Au 11.5162 22.1083 11.2211
Pd 24.6205 19.3246 17.5672
Au 34.3284 22.3317 17.2444
Au 27.1748 21.2034 21.3775
Pd 11.6074 24.6565 14.9829
Au 9.18618 25.8011 13.9721
Au 15.135 20.3538 32.9111
Pd 8.50807 25.0103 23.7356
Au 13.3173 32.1672 19.8365
Au 16.037 21.0092 27.4276
Pd 13.4046 15.2727 14.1613
Au 22.0252 15.6976 13.3895
Au 19.357 15.7959 19.5374
Au 18.3952 20.3489 23.2921
Au 18.3839 19.9811 28.3245
Au 16.3964 25.1285 29.0553
Au 20.5055 17.1566 11.7375
Au 15.8956 19.0191 13.9141
Au 24.741 32.2517 14.0002
Au 25.547 20.8806 27.2511
Au 22.334 17.7364 25.4786
Au 29.5313 14.517 15.6721
Au 21.2904 20.4703 14.735
Au 14.2654 14.0439 28.7543
Au 13.6772 21.3856 26.3193
Pd 17.5584 20.5645 11.9924
Au 15.4728 28.2479 16.8991
Pd 26.3563 32.0326 21.6475
Au 18.96 15.4801 22.2564
Au 16.9885 23.718 16.4284
Au 12.0406 12.5249 9.74964
Au 29.7332 19.2474 11.5672
Au 26.7251 18.6665 26.0207
Au 15.7431 19.9384 22.2661
Au 15.2844 24.0601 24.2118
Au 10.2147 20.6993 23.0843
Au 26.5217 24.8841 25.2804
Au 17.5635 11.3937 19.4215
Au 21.9623 13.5869 22.9337
Au 15.9497 23.8523 19.2142
Au 20.4393 21.1225 19.0817
Au 18.566 19.8628 14.3996
Au 13.9435 20.6454 20.3229
Au 32.0051 21.7729 18.7758
Au 27.9959 26.3083 12.0849
Au 29.139 26.4506 20.8721
Au 29.9145 29.1292 21.5682
Au 13.6193 26.0622 13.5349
Au 7.84077 14.037 21.8989
Au 10.8486 14.9785 13.4643
Pd 11.3877 24.0117 30.3489
Au 9.97735 26.3263 21.9132
Au 20.69 31.632 24.9168
Pd 19.2783 22.4712 21.1036
Au 32.0348 20.4988 21.4052
Au 17.7292 8.15934 29.2804
Au 16.9106 16.1384 10.9197
Au 18.0258 15.1486 17.1024
Au 26.4679 12.0976 17.4015
Pd 26.2413 13.6036 19.8147
Pd 18.8632 12.8626 26.8819
Pd 23.845 19.8743 31.1144
Au 17.5901 27.7469 22.0014
Pd 21.0791 15.4211 7.6159
Pd 18.1356 21.501 7.20988
Pd 19.4543 30.9276 18.9007
Au 22.0586 31.5888 19.8278
Pd 24.7871 12.6863 21.983
Au 20.0837 15.6533 26.3775
Pd 26.2916 18.4806 28.7222
Pd 25.1086 22.489 24.5879
Au 22.8605 21.7833 26.3531
Au 28.0238 12.4648 11.9252
Au 12.8186 14.031 11.7012
Au 25.5324 18.5389 14.7668
Au 22.9606 18.5888 13.1596
Au 21.0023 22.5066 10.6759
Au 17.391 18.7688 32.6584
Au 14.3087 12.8117 23.4194
Au 16.062 21.4361 24.6597
Pd 15.3179 23.5648 26.9412
Au 7.43883 19.0474 24.0808
Au 13.526 18.1009 17.1272
Pd 29.3265 19.8579 17.4089
Au 15.1277 21.4324 12.9695
Au 11.2307 24.9409 12.2257
Au 20.6607 27.0368 13.9959
Au 19.4255 25.1251 22.1205
Au 25.0475 22.0822 17.115
Pd 25.9658 19.0574 19.8907
Au 25.8729 29.7271 20.2237
Pd 27.2986 22.8823 28.492
Au 25.2561 21.1975 7.84825
Au 13.6356 28.5756 11.9314
Au 8.89752 24.4541 26.6009
Au 18.0073 27.7305 15.5619
Au 13.391 27.7187 18.5439
Au 19.4485 17.9761 24.8631
Pd 24.5615 16.2177 13.9779
Au 29.6561 21.0154 20.0506
Au 17.0944 17.7784 23.3425
Au 27.2325 15.9507 24.5265
Au 11.2849 19.5502 20.3331
Au 12.5365 20.4666 18.0047
Pd 7.4715 16.1515 17.7463
Au 16.3138 14.8781 22.4952
Au 18.3422 12.8623 22.0259
Au 13.1008 15.4278 17.7474
Au 21.5059 28.9541 19.0261
Au 16.4603 26.0057 26.4112
Au 27.2719 28.3688 13.6969
Au 21.0388 23.3531 17.2848
Au 17.6557 15.7626 25.0453
Au 14.4381 24.8289 17.2515
Au 14.7336 15.2605 24.6653
Au 16.0443 10.4683 23.5713
Au 13.0476 15.7598 26.8139
Pd 24.6581 20.1128 22.2242
Au 21.4888 29.247 11.1997
Au 9.0816 23.3183 21.6239
Au 26.1431 23.9074 19.2485
Pd 19.6815 22.2533 13.1527
Au 24.7324 6.94341 16.5044
Au 14.5937 15.3139 20.4924
Au 22.8893 19.4589 7.86007
Au 22.3377 11.4467 6.60102
Au 23.0694 17.1372 18.5595
Au 18.1119 17.9046 18.286
Au 26.94 20.4599 23.9625
Au 20.5311 16.8207 17.1154
Pd 23.3851 23.7567 18.3573
Pd 19.727 17.9944 22.1781
Au 11.0325 23.6954 23.435
Pd 13.4486 10.682 24.815
Au 19.8036 27.1101 11.3722
Au 29.4389 21.7744 12.5836
Pd 28.3884 18.3484 15.3096
Au 32.7947 26.1923 17.7505
Au 33.8541 18.7562 20.2822
Au 28.8514 24.6536 26.7443
Pd 13.2792 23.0531 19.2131
Au 17.0136 17.0153 20.7306
Au 13.9319 20.4555 15.4148
Au 9.06099 18.6405 21.7482
Au 6.2287 21.3281 24.8495
Au 14.5816 30.8972 13.0379
Au 22.4269 22.3823 20.6392
Au 20.5367 28.1019 16.5692
Au 24.785 32.3805 19.4702
Au 21.4081 26.3579 26.6857
Au 6.54061 24.0954 17.6676
Au 18.0022 17.5682 12.9096
Au 22.7666 9.79628 23.8973
Au 27.1229 10.1693 28.2904
Au 22.5069 6.89684 17.9423
Au 30.4917 12.3021 25.7774
Pd 22.1317 16.6952 28.0063
Au 21.3767 19.3241 29.792
Au 14.8928 27.322 29.9554
Au 20.2272 16.858 35.3018
Au 13.3242 16.7559 7.69646
Pd 18.5132 29.022 13.1295
Au 17.812 20.6906 17.9505
Au 26.2741 30.3745 15.3606
Pd 24.3617 23.3414 12.8504
Au 30.1372 26.7496 27.8265
Au 23.9624 15.1768 23.455
Pd 20.59 13.5679 20.6957
Au 31.7341 16.574 27.8637
Au 28.9101 16.4906 22.2552
Au 28.7577 14.8792 28.9847
Pd 23.1903 27.9758 16.7507
Au 24.5982 17.129 26.7898
Pd 24.0852 26.3105 29.1049
Au 20.0641 19.4449 16.8827
Pd 25.5938 17.9072 12.0147
Au 14.5363 17.9155 5.57105
Au 27.2354 15.966 15.0258
Au 28.0798 10.4578 13.7731
Pd 20.7841 20.7705 6.72556
Pd 26.236 22.3359 14.5108
Pd 22.4834 20.9752 17.357
Pd 31.3644 23.1603 11.4085
Au 7.01994 19.3386 26.8479
Au 23.5213 21.8113 29.1577
Pd 18.9124 12.4172 32.4915
Pd 15.9629 30.7602 25.2658
Au 16.8296 14.1184 33.4202
Au 27.0533 16.1363 27.3706
Au 17.7837 33.0594 18.8259
Au 20.8978 29.1055 25.7995
Au 21.6753 18.8038 34.2127
Au 8.56298 17.4847 28.4463
Pd 16.4253 14.7493 8.71308
Au 10.3397 21.9541 15.9148
Au 16.3743 19.793 6.11781
Au 21.0954 17.6258 9.1738
Au 15.9132 27.9818 13.2729
Au 11.9698 24.2459 7.00072
Au 18.5302 32.144 21.5294
Au 20.7765 17.9898 6.51579
Pd 25.031 27.6526 14.9034
Pd 27.1134 23.7741 16.5966
Au 23.4481 21.2542 5.83153
Au 20.3314 20.2379 9.27432
Au 18.0405 24.8255 9.03252
Au 22.0548 23.0871 14.7413
Au 27.3232 26.4922 15.9593
Au 24.2992 14.0941 17.9196
Au 29.2349 29.2496 27.2009
Au 18.5191 10.532 16.3164
Au 10.2868 13.2411 20.9118
Au 16.0953 11.09 26.2279
Pd 18.6042 23.1794 18.5362
Au 11.3949 27.5051 13.9485
Au 5.6792 21.4637 16.9267
Au 14.312 26.5879 24.833
Au 10.8547 16.0549 28.8641
Au 17.9574 22.7955 28.1797
Au 22.7776 18.2601 15.9239
Au 24.072 14.5471 11.9122
Au 19.9216 15.2874 15.0183
Au 27.191 9.78318 19.1654
Au 24.3971 24.1496 15.5966
Au 31.8358 14.4878 14.1219
Pd 29.2552 19.4098 22.2258
Au 27.2878 21.3025 18.6327
Au 26.13 15.5466 21.8769
Au 14.6385 19.0223 24.7203
Au 9.52342 12.655 26.2215
Au 11.6862 13.7519 15.8062
Au 8.13152 13.8856 19.1425
Au 12.3885 8.21563 24.6034
Au 8.11824 18.7937 12.3317
Au 11.7607 11.2397 26.9028
Au 11.3936 18.5544 29.651
Pd 12.8874 19.4953 22.5643
Au 20.2531 33.4512 19.7991
Au 28.9294 24.7717 29.4735
Pd 14.7348 29.7893 19.9099
Au 25.6345 28.1715 30.3146
Pd 22.0826 29.7536 23.4108
Au 18.4963 30.0727 29.5784
Au 27.3965 28.3523 22.1067
Pd 18.8347 27.3581 25.7529
Au 16.9751 31.8254 27.9022
Au 21.3437 12.4257 25.6947
Au 11.4231 24.8995 27.5831
Au 7.35814 17.5169 14.6839
Au 16.7915 13.1419 24.553
Au 24.9565 11.2892 29.3003
Au 18.5734 10.2302 27.7189
Pd 22.1038 8.30606 27.6344
Au 20.6718 9.74048 25.8215
Au 28.2633 15.6704 19.7726
Au 18.859 21.1253 25.9144
Au 19.7174 27.3334 20.2093
Au 16.6256 20.2273 9.11925
Au 20.878 20.4514 21.8557
Au 16.533 32.6427 23.3852
Au 14.7012 27.6739 22.2646
Au 17.5276 25.7661 23.9215
Pd 15.9964 27.4583 19.758
Au 22.2687 32.63 15.1552
Pd 15.4316 14.0336 12.431
Au 14.316 19.4782 7.82698
Au 13.5257 17.796 19.9343
Au 13.6962 14.0645 8.00687
Au 22.4192 18.5057 22.8829
Au 19.8402 12.1406 10.4864
Pd 20.5139 17.8835 14.3796
Pd 25.1287 18.7655 9.39757
Au 30.1527 12.2538 14.174
Pd 28.1043 13.7269 26.1452
Au 25.0098 22.9498 21.9196
Pd 25.3059 13.9604 15.4604
Au 24.9933 25.8846 17.534
Au 22.6321 11.3353 21.3731
Au 23.9814 25.2046 20.5421
Au 29.4934 22.7641 17.8911
Au 32.5661 25.6277 21.0964
Pd 30.388 16.8168 14.3119
Au 25.1988 27.2271 11.9922
Pd 20.0803 23.1176 7.99577
Au 17.3654 31.5205 13.1673
Pd 15.5468 16.913 26.545
Pd 11.9044 19.7807 25.0589
Au 11.9695 26.6445 29.4978
Au 12.9758 24.2176 25.5369
Au 18.178 17.2391 27.5409
Pd 17.8023 23.6111 25.5202
Au 14.8847 14.1776 16.0658
Pd 9.08282 28.3144 12.8474
Pd 13.4483 12.602 13.8913
Au 13.839 20.5398 5.21733
Au 15.5277 7.68455 18.1443
Au 12.8022 22.7698 16.5685
Au 28.4345 24.0957 13.7163
Pd 31.5146 21.1251 16.2263
Au 31.1031 16.5099 19.19
Au 31.859 15.5875 16.6114
Au 26.831 18.2532 22.2588
Au 26.8302 25.7905 30.8322
Au 7.72677 21.4869 12.6645
Au 9.3012 11.4562 19.1676
Pd 12.299 27.4432 20.9578
Pd 10.6636 22.6034 18.6726
Pd 9.72162 23.1069 13.5826
Pd 12.3527 22.1189 13.8896
Au 12.3002 16.7816 11.9688
Au 7.2905 25.5753 21.259
Au 8.87518 29.0233 17.6136
Au 28.2905 26.2662 23.7117
Pd 19.9201 28.2297 28.2244
Pd 17.4843 29.887 20.4608
Pd 17.4349 13.3309 10.7722
Au 15.1398 18.1539 31.0983
Pd 15.0411 8.44582 25.0606
Au 24.4449 9.23501 21.5059
Au 32.116 10.5747 21.5199
Au 21.4195 14.5687 10.9266
Au 24.4586 16.0635 32.1294
Au 19.6617 14.6835 31.2792
Au 21.551 13.2709 32.5594
Au 17.6408 16.6636 34.5503
Au 22.0064 15.7716 33.5348
Pd 20.0325 19.5612 32.1615
Pd 18.7591 13.3962 8.22021
Au 8.44128 18.5066 9.60678
Pd 17.173 27.1027 10.6942
Au 12.1697 31.2555 15.0725
Au 27.1425 22.535 9.26171
Au 17.7229 24.2476 6.46237
Au 30.0112 22.4059 27.6682
Au 29.6373 15.9437 26.2508
Au 24.1681 17.3544 21.2411
Au 24.9487 17.5412 24.0324
Au 25.5652 28.2337 27.4934
Au 25.9831 20.5641 32.7319
Au 18.6195 14.8417 28.7267
Au 20.0363 23.8081 32.2576
Au 17.3472 23.0233 22.7726
Pd 24.8305 13.7346 30.7503
Au 26.3529 13.4827 23.8908
Pd 24.9668 23.5297 27.057
Pd 20.5006 18.7466 27.2298
Au 26.1648 20.9359 30.0402
Au 30.3874 19.6882 14.2467
Pd 23.5345 14.6267 9.27224
Pd 19.2491 15.5242 9.82004
Pd 16.0706 17.4966 8.42269
Au 25.0149 10.7197 10.4387
Au 27.0384 18.0339 17.6384
Au 21.6209 16.2117 21.1141
Au 22.6397 22.1757 8.42517
Au 26.658 17.0507 7.76239
Au 25.6987 14.5642 7.70613
Au 23.2215 17.0016 10.8301
Au 20.9489 10.3008 12.1091
Pd 16.3178 29.6937 11.2924
Au 25.0991 29.8315 12.9071
Au 8.10899 17.0464 25.8624
Au 7.67 21.9938 27.0472
Pd 11.5208 17.2761 21.8793
Au 16.4353 14.2542 27.0561
Au 6.39607 18.5126 21.427
Pd 19.2186 21.3481 30.4737
Au 13.7838 20.27 29.3741
Pd 22.6624 14.9149 25.8982
Au 7.7321 16.5466 22.9685
Pd 17.1189 19.0563 25.8062
Au 12.6042 17.1361 24.5064
Au 18.9333 25.413 27.6017
Au 16.3014 25.7083 31.8282
Au 19.4636 14.6209 33.9945
Pd 12.8323 14.9471 22.692
Au 14.3453 15.7371 10.1685
Au 8.89829 15.1846 15.5408
Pd 15.6445 18.7772 11.1401
Pd 18.5072 18.8615 7.6083
Au 11.4338 21.63 6.30212
Pd 13.8029 22.0778 7.46791
Au 13.3895 23.1542 5.04207
Au 7.34828 24.2188 12.836
Pd 15.827 25.3528 12.2446
Au 15.9586 22.3939 5.61899
Au 19.5226 25.7248 17.53
Au 18.4057 18.3778 10.2641
Au 16.514 26.6582 7.68764
Au 31.9864 23.7406 16.8402
Au 23.4441 31.8023 24.6588
Au 30.3074 16.596 11.4139
Au 29.6134 24.8041 16.0417
Au 31.2747 27.5836 19.706
Au 30.2807 27.1603 17.1948
Au 33.5984 24.0227 19.2086
Au 33.5822 22.2423 14.6976
Au 27.5528 22.3722 25.8995
Pd 33.6003 19.7911 17.5719
Au 32.0714 18.235 12.669
Au 28.6167 23.5641 20.5082
Au 33.446 16.1102 20.6953
Au 28.3633 19.3128 30.4331
Au 9.26636 12.9691 14.0467
Au 24.755 21.4855 19.6698
Pd 7.35126 21.0126 22.251
Au 18.8891 29.5099 10.422
Au 19.5275 24.5696 14.968
Au 6.88679 25.3366 15.3202
Au 14.5791 22.9598 21.6659
Au 13.3418 10.8836 11.6832
Au 6.67412 15.9878 20.3862
Au 6.50644 24.0435 25.4708
Au 6.86778 22.9891 20.1264
Pd 11.4373 24.6404 20.5529
Au 11.7758 13.3674 24.8478
Pd 13.2182 18.0141 14.255
Pd 19.6227 8.70156 23.5743
Au 28.5501 12.1304 19.5416
Au 28.7649 18.3591 19.7846
Pd 27.576 20.0302 13.4349
Au 20.8647 10.8131 31.4186
Pd 21.6616 14.835 18.502
Au 22.9355 19.5758 19.9947
Au 33.1251 16.914 14.7467
Au 29.3957 9.78928 21.1937
Pd 31.4654 19.4206 23.8656
Pd 32.7533 14.3127 18.7893
Pd 29.4514 20.6981 25.2114
Pd 28.0908 13.7636 21.7992
Au 34.4435 20.494 22.4778
Au 19.6129 6.46071 14.4689
Au 16.9086 7.8062 23.0101
Au 10.1671 15.1414 23.0357
Au 21.331 20.7123 4.20164
Au 14.784 15.0675 31.5831
Au 16.0911 9.1938 20.5819
Au 13.5502 11.7568 16.5998
Au 13.4711 8.25617 19.9483
Au 19.1166 9.15848 13.9383
Pd 10.0236 17.9001 24.1479
Pd 15.8439 10.0933 16.8344
Au 10.6656 25.9126 25.0443
Au 9.67003 16.5666 10.9843
Pd 11.5034 20.5331 27.7213
Au 17.8986 29.6351 26.6942
Au 30.0236 24.5841 22.6838
Au 7.85401 26.7708 25.6649
Au 9.90185 27.2628 27.4802
Au 18.8466 26.4339 32.849
Au 15.2034 32.9801 17.9718
Pd 13.9566 25.546 19.983
Au 10.2071 29.1184 21.9034
Au 22.4607 23.614 33.3785
Au 28.5841 28.5323 18.9883
Au 15.6377 33.2272 25.9832
Pd 24.0194 27.7691 19.357
Au 22.0568 24.4491 22.4661
Pd 22.0379 26.2535 18.5761
Au 13.2035 8.99075 26.9847
Pd 10.5407 15.585 25.6967
Au 5.60461 17.8707 18.9035
Au 12.1068 12.0409 29.5491
Au 28.0419 9.18277 23.5928
Au 20.2528 16.8528 29.7982
Pd 18.1534 10.2667 21.9804
Au 17.6568 8.67268 25.5764
Au 23.6344 10.3213 26.4616
Au 25.5441 10.5294 23.8279
Au 15.8654 18.6301 28.5402
Au 29.8179 9.87571 18.5079
Au 25.0489 7.65971 19.2902
Au 21.267 14.0368 28.259
Au 18.3639 19.6338 20.5657
Pd 15.892 25.9459 15.0712
Au 22.5217 33.2329 17.8439
Au 9.79281 29.7217 14.9858
Pd 9.19153 23.5344 10.9489
Au 22.03 25.617 15.9694
Au 19.6269 32.3255 14.5218
Au 13.7231 23.6158 12.0444
Pd 15.7876 30.1626 22.5784
Pd 20.833 29.8451 14.3871
Au 26.6667 25.226 21.7718
Au 13.4254 32.0126 25.0907
Au 14.3553 31.1066 27.4209
Au 25.196 29.9821 23.1467
Au 17.1888 7.23492 13.404
Au 10.8693 25.3549 9.50944
Au 19.6775 7.53539 11.9189
Au 16.4119 11.5879 32.3386
Au 15.9669 12.5428 7.43741
Au 20.79 12.9882 13.1769
Au 18.9495 14.8244 12.4651
Pd 22.9468 9.46721 19.0384
Au 21.5541 12.9745 8.61392
Au 23.1793 13.1603 14.2269
Pd 20.1407 10.8834 20.1472
Au 20.0036 10.8878 7.79673
Au 28.7114 10.3037 26.0781
Pd 25.2432 9.5237 17.3126
Au 30.761 19.9195 28.7472
Au 27.9327 27.2026 26.2879
Pd 19.5168 13.8047 24.3331
Au 29.1414 21.8103 30.1264
Au 23.1175 7.18837 23.1422
Au 30.5884 26.1194 25.2244
Pd 29.7849 14.2706 23.9385
Pd 21.1899 24.5818 12.5904
Au 32.0784 14.6657 25.5948
Au 33.986 23.1806 21.8574
Au 22.5501 12.4704 30.1551
Au 24.2957 25.9195 31.8021
Pd 26.9769 11.0846 21.5975
Au 22.5524 27.0101 24.1575
Au 23.5872 11.6804 16.6092
Au 28.3184 30.8447 20.3517
Au 22.2779 10.3635 9.33644
Pd 24.7458 32.3171 16.6569
Au 28.886 21.8295 15.3691
Au 23.0319 18.6644 5.11541
Pd 21.6196 8.26808 13.6796
Pd 16.1553 22.8432 8.3924
Pd 18.0603 17.462 15.6187
Au 21.7149 27.3964 8.85441
Au 17.73 24.1118 33.5857
Au 18.4751 30.2324 23.6986
Au 9.37912 25.3389 29.2091
Pd 12.8796 22.8385 28.4726
Pd 11.7521 12.921 18.4704
Au 22.5846 24.1945 30.7202
Au 13.5599 16.808 29.2603
Au 13.1982 21.9445 23.7534
Au 14.5336 17.252 22.4778
Au 11.713 25.0834 17.8697
Pd 13.3982 18.604 27.1394
Au 23.2735 19.3563 27.7693
Pd 15.0847 16.7128 12.7276
Au 15.8568 6.56358 20.7092
Au 17.6901 7.60669 16.1305
Au 6.14779 20.1366 14.5101
Au 15.3283 16.7691 15.5027
Au 11.1697 31.7472 21.6029
Au 11.1481 10.4789 17.4399
Au 20.2917 19.8213 12.0609
Pd 13.9072 10.0741 14.4925
Au 20.5225 11.3121 23.0434
Au 16.8791 12.6421 17.1695
Pd 20.1933 25.2831 24.6074
Pd 23.9497 20.816 15.0316
Au 26.6206 14.8531 12.6212
Pd 31.3251 17.8298 21.4681
Au 30.2461 12.3157 21.7531
Au 33.2008 15.1384 23.1674
Au 31.9173 21.1073 26.283
Au 28.1339 30.7173 23.1408
Au 8.85376 26.118 11.3168
Au 10.1249 17.6574 13.7226
Pd 8.15174 14.5683 24.8169
Au 9.24594 30.5765 19.8028
Au 13.7084 29.0197 14.7312
Au 9.33511 16.0496 20.4734
Au 18.1279 5.56226 21.8169
Au 19.9143 31.2205 12.1716
Au 18.2537 28.434 18.2358
Au 10.4589 27.2288 19.0587
Au 21.1006 32.2375 22.336
Pd 30.8045 24.9076 19.0875
Au 18.7759 26.0025 30.282
Au 16.8525 26.0902 17.6184
Au 17.1966 14.216 19.7366
Au 18.2231 10.3521 30.7623
Au 19.9663 6.01443 17.2017
Au 21.4211 8.89319 21.5575
Pd 22.1839 6.41331 15.4214
Au 20.3924 13.296 6.02623
Au 24.8791 11.2911 19.5473
Au 23.6272 12.7636 27.5054
Au 14.4599 12.3947 30.825
Au 15.6611 9.92422 30.2279
Au 24.2507 30.1774 29.1816
Au 20.5754 21.5469 33.9012
Au 24.2553 18.4264 33.4422
Au 17.9184 21.4359 33.0219
Au 18.3834 16.2049 7.48555
Au 11.6829 15.2991 9.50338
Pd 16.062 19.0511 16.6953
Pd 22.5171 24.9078 7.88747
Au 18.4655 22.078 9.93561
Au 24.9063 16.2998 5.728
Au 25.967 24.7575 10.8728
Pd 27.5991 23.224 23.3175
Au 26.469 13.442 28.5145
Au 22.9115 28.1865 30.7971
Au 27.1754 23.1046 31.3623
Pd 16.59 20.5635 30.5978
Pd 24.2338 15.0966 28.5676
Au 28.819 18.1289 24.5035
Au 26.4134 15.9184 30.0547
Au 29.1252 17.6087 28.4854
Pd 21.1656 16.0363 23.7938
Pd 29.3814 28.6276 24.3885
Au 30.8828 13.9764 27.831
Au 28.8904 12.1623 28.1317
Au 26.12 18.2248 31.4793
Au 33.0524 19.002 27.5253
Au 23.2607 20.9329 33.6356
Pd 19.6898 17.0345 32.6792
Au 25.151 23.9418 29.7593
Pd 22.1829 17.7498 31.779
Au 15.3424 22.6552 29.5851
Au 22.9075 12.1509 11.2896
Pd 21.0245 10.8696 14.8881
Au 29.3061 16.7342 17.2443
Au 25.2885 18.9034 6.52178
Au 27.9799 17.703 10.0384
Au 29.3564 14.5977 12.9304
Pd 31.4278 19.1361 19.0296
Au 25.7093 10.9057 15.0384
Pd 23.4055 10.485 13.6772
Au 23.2615 14.0542 6.54876
Pd 18.8391 30.3463 16.2128
Pd 29.3715 21.3782 9.98726
Pd 25.0474 16.5506 16.6379
Au 18.0982 26.219 13.3514
Au 29.502 27.0748 14.4224
Au 20.0711 25.5481 6.99283
Pd 27.044 20.1214 10.7964
Au 28.8605 24.0002 10.8833
Au 21.7151 23.2788 5.88383
Pd 23.2859 29.6686 21.0935
Pd 8.99181 24.7376 19.2674
Au 17.3086 28.1738 31.1662
Au 24.0124 17.4997 29.7917
Pd 18.0726 18.1886 30.2122
Au 21.3 11.0736 28.1282
Au 7.71211 26.5687 17.7796
Au 12.8022 19.5461 31.8176
Au 9.03437 20.0725 28.6275
Pd 17.2915 16.1668 31.8202
Au 19.0384 19.2475 34.7258
Pd 10.937 22.4584 25.919
Au 10.7175 17.9845 26.9076
Au 16.3357 19.0674 34.977
Au 12.7631 16.8899 31.8236
Pd 17.3109 27.6427 28.4826
Au 21.7676 21.6597 31.4058
Au 13.938 24.8156 30.4703
Au 11.9153 30.1636 26.573
Au 13.0416 29.8546 21.9958
Au 20.0972 28.2871 31.0723
Au 11.9882 18.985 6.49742
Au 11.2965 11.1901 14.9318
Pd 11.5466 16.4953 15.8102
Au 15.1119 7.78865 15.292
Au 11.5076 29.9157 12.8309
Au 13.0672 19.8174 12.3203
Au 16.1006 12.3215 14.5573
Au 22.2826 16.0936 5.17157
Pd 19.6404 15.8568 5.1508
Au 14.8195 24.6351 6.8286
Pd 10.3378 20.4803 13.1258
Pd 19.332 22.4771 5.1247
Pd 9.97834 13.9428 11.1764
Pd 15.3828 25.1465 9.5777
Au 14.8105 12.7056 9.99395
Pd 13.2776 26.0996 10.8732
Au 10.8295 17.7328 8.58059
Au 24.2525 12.1713 8.33648
Pd 20.657 25.1113 9.78984
Au 11.6822 28.9939 16.7604
Au 16.6375 30.6743 17.9604
Au 26.0908 25.3123 13.7656
Au 31.9251 25.9466 15.0888
Au 25.0161 20.4468 12.6388
Au 33.4804 17.162 18.065
Au 24.7215 27.4818 22.0206
Pd 29.851 21.8605 22.7721
Pd 31.0446 23.1453 14.2837
Au 34.3996 21.3749 19.8793
Au 28.2212 14.9976 10.4377
Au 28.4356 28.9977 16.2502
Au 23.7625 32.1776 22.0367
Au 24.2993 26.3983 9.38708
Au 33.1013 24.3824 13.209
Pd 23.6116 14.5545 20.5279
Au 32.4673 24.6594 23.6315
Pd 26.8193 20.3462 16.1848
Au 34.1863 24.6744 15.7765
Au 31.1188 27.1085 22.7851
Au 24.1858 26.1555 26.3228
Au 9.31677 20.1315 25.8167
Au 14.6296 23.5658 14.696
Au 10.1355 26.838 16.3309
Au 13.0443 23.6957 9.42
Au 14.8286 27.9368 9.59284
Pd 22.7808 21.8626 23.3592
Au 12.5745 32.8635 17.2402
Au 22.4828 31.0551 27.1325
Au 9.40929 12.6739 16.7817
Pd 13.2843 18.2675 9.96763
Pd 13.8107 29.3514 24.658
Au 19.9036 33.0156 17.0915
Pd 13.104 26.739 16.0603
Au 11.377 19.3967 15.5824
Au 16.356 30.0609 15.0954
Au 20.0046 27.7975 23.2966
Pd 8.28921 18.2456 19.2383
Au 12.3761 27.5627 26.4719
Pd 8.29349 15.5989 12.9914
Au 9.84738 19.9421 17.8373
Au 24.806 8.7205 28.2216
Au 29.2317 12.056 16.8156
Au 25.6829 7.7961 23.5614
Au 31.1177 16.6782 23.9198
Au 28.0838 17.2884 12.7496
Pd 22.4117 12.3759 18.9734
Pd 27.5642 12.9837 14.6316
Pd 31.4397 18.3109 16.4465
Au 30.0456 14.1184 18.4482
Pd 25.7173 16.0581 10.0855
Au 28.0064 9.80227 16.4495
Au 26.3445 8.95751 25.9571
Au 33.0035 13.1367 21.1743
Pd 33.5715 17.9237 22.9165
Au 28.382 11.8544 23.9087
Pd 30.5469 10.3723 23.7217
Au 31.4344 11.8913 19.2177
Au 30.7129 18.5646 26.3697
Pd 32.4499 21.9489 23.72
Au 33.1584 17.2068 25.5486
Au 17.4998 11.0894 9.24516
Pd 11.897 15.2743 20.1191
Au 6.46022 20.3882 19.4231
Pd 20.5231 8.29779 18.9662
Au 11.112 11.9752 12.4138
Au 17.9876 8.96098 18.46
Au 10.6191 10.2793 24.6409
Pd 14.0454 13.0261 26.2435
Au 10.7993 18.9883 11.0061
Au 11.0946 27.646 11.1659
Au 17.9825 25.3848 19.9587
Au 15.8108 8.8653 27.6874
Au 7.39277 22.6085 15.1522
Au 11.97 20.4973 8.94186
Pd 15.8589 19.1071 19.3728
Au 9.51881 10.578 21.7244
Au 20.304 5.76708 19.9094
Au 6.91938 19.0753 16.9682
Au 9.17045 24.3206 16.5371
Au 14.349 10.7045 19.0736
Pd 14.0145 25.846 27.7905
Au 13.1478 28.9561 28.6888
Au 8.12299 21.9706 17.796
Au 11.0793 21.1759 30.3356
Au 11.7821 29.9078 19.4132
Pd 21.357 26.3271 29.4737
Au 10.3265 31.2916 17.2019
Pd 16.6892 21.6607 20.3699
Au 6.07029 26.0319 23.6892
Au 8.59506 22.4289 24.4142
Pd 27.984 27.6225 29.0861
Au 21.3928 30.1539 29.5379
Au 17.6782 23.4718 30.9109
Au 8.22253 27.9506 20.2675
Au 26.1136 32.1188 24.3726
Au 19.8253 31.2731 27.5377
Au 16.5281 28.2551 24.5019
Pd 28.2924 25.5421 18.3653
Au 27.0331 30.1091 28.5154
Pd 31.4855 23.1297 21.029
Pd 17.0722 13.6763 30.7526
Pd 9.0406 21.0114 20.2335
Pd 20.363 8.41436 16.2493
Au 15.1695 17.0747 33.5077
Pd 13.1537 12.8924 20.805
Au 9.88118 22.7139 28.4971
Au 20.6112 6.34272 22.5321
Au 19.4699 7.57821 27.1801
Au 15.7939 12.2325 21.2236
Au 16.7672 11.9906 28.7858
Au 22.3626 15.1917 30.6547
Pd 19.4957 12.4167 29.685
Au 26.1769 11.7449 26.2997
Au 22.8723 9.6985 29.874
Pd 18.529 11.1037 24.7789
Au 31.7536 12.8943 16.4846
Pd 22.9386 9.05379 16.0804
Pd 27.2529 14.6912 17.4109
Au 20.9516 10.69 17.566
Au 22.7601 6.83783 20.543
Au 20.1843 29.8417 21.3884
Au 9.65345 20.1113 7.77643
Au 14.6987 32.2385 15.3786
Pd 16.5189 21.3496 15.3386
Au 7.84167 27.8587 15.2792
Au 22.5077 26.7229 11.3132
Au 19.0484 27.3914 8.64644
Au 24.9367 23.8832 8.41586
Au 27.1144 29.8061 25.5436
Au 18.1833 32.3415 25.5237
Au 18.6629 24.3199 11.5739
Au 30.6141 25.3787 12.6445
Au 9.88373 28.5812 25.0619
Au 17.318 32.6 16.0265
Au 15.9385 32.1933 20.6185
Au 13.2138 26.2995 8.19353
Au 15.1781 21.5797 17.7831
Au 22.0617 27.1103 21.4207
Au 19.1855 22.0217 15.9061
Au 22.718 28.3668 27.9367
Au 17.3334 17.3729 5.37426
Pd 18.7072 6.41094 24.4958
Au 14.1783 7.71063 22.5703
Au 11.739 10.5516 20.0604
Pd 18.79 12.9304 15.216
Au 18.8984 19.7287 5.00557
Pd 16.2602 22.9704 11.0833
Au 19.7029 9.3577 9.92453
Au 18.7789 7.91474 20.9444
Pd 19.463 13.0145 18.2498
Pd 22.5042 21.4897 12.577
Au 20.6777 18.0697 3.89481
Au 23.2525 8.93501 11.5019
Au 18.4113 11.6423 12.8533
Au 26.5411 8.23452 14.9648
Au 17.071 15.0585 14.3704
Pd 22.7134 15.4381 16.0078
Au 17.8468 6.28184 18.876
Pd 21.3064 13.1855 16.3035
Au 17.5617 9.24627 11.5348
Pd 25.3135 14.5073 26.0969
Au 28.2683 20.2509 27.7693
Au 23.9165 7.74695 25.6816
Pd 24.4925 22.5932 31.9063
Au 21.2739 7.16112 25.1563
Au 26.5571 25.5916 28.0691
Au 16.2144 16.0051 29.291
Au 26.4904 26.9264 19.7419
Au 33.8454 19.7657 24.9994
Au 33.2431 19.5652 14.8078
Au 27.0079 8.21912 21.2629
Pd 24.5441 25.1629 23.4827
Au 23.8366 12.5208 24.6425
Pd 30.4126 23.2705 25.0429
Au 32.1317 12.6391 23.6529
Pd 11.9866 27.7152 23.5838
Au 30.9824 14.9081 21.3947
Au 22.6992 24.1521 25.1301
Au 20.2649 8.92154 29.5394
Au 21.5186 26.1801 32.2387
Au 25.8022 9.49171 12.633
Au 32.1472 21.0052 12.7048
Au 20.6251 18.3175 19.522
Au 23.8197 29.1527 25.4855
Au 18.1082 11.6478 6.24929
Pd 23.3861 25.7615 13.6422
Au 27.1469 7.55177 17.6183
Au 25.1844 31.1788 26.8016
Au 24.1695 7.75876 13.9393
Au 24.6422 21.822 10.3947
Pd 25.4337 12.2825 12.7504
Pd 26.8923 22.5025 11.983
Au 17.6411 14.1918 5.83641
Au 10.7768 32.7825 19.2571
Pd 23.5933 16.8756 7.88858
Au 27.4907 19.7396 8.23342
Pd 22.7708 19.7266 10.5758
Au 25.8562 27.5393 24.4878
Au 25.9837 13.3002 10.1989
Au 23.1813 24.1764 10.5613
Au 8.06133 27.7512 23.1076
Au 9.27877 12.4828 23.5786
Au 11.7581 11.7184 22.7361
Au 20.4065 23.3698 26.4945
Au 14.2014 11.1371 28.2498
Au 20.2329 23.7289 29.461
Au 13.8986 10.2879 21.919
Au 13.94 32.302 22.542
Au 20.8622 21.3526 28.1738
Au 21.4791 30.7864 16.9724
Au 12.3085 14.5056 30.5316
Au 15.975 25.3187 21.76
Au 8.78466 14.9096 27.53
Pd 22.5707 24.2196 27.9893
Au 6.38006 23.4471 22.8386
Au 15.544 23.0254 32.4431
Pd 11.5084 13.7833 27.6768
Au 15.8095 29.7852 29.2878
Au 13.2819 22.2129 31.3577
Au 11.3642 30.5762 24.0062
Au 15.8675 11.2823 12.023
Pd 17.2285 23.4003 13.6878
Au 11.5913 8.88503 22.2186
Au 16.9707 29.1009 8.69199
Pd 9.28657 17.6632 16.5432
Au 9.08662 20.9534 10.3624
Au 15.4484 15.5567 6.39901
Au 13.8789 30.511 17.3757
Pd 10.1742 15.1014 17.9137
Pd 22.8936 28.413 13.3901
Au 14.721 13.3511 18.6554
Au 26.8332 31.0114 18.02
Au 15.0065 8.68171 12.5014
Au 23.5741 30.1921 15.2915
Au 13.3531 8.98525 17.0804
Au 22.6032 31.1721 12.8108
Pd 10.4739 22.7177 8.66358
Pd 15.1523 28.4443 26.9398
Pd 16.6348 9.76934 14.2987
Au 26.0119 28.4881 17.4358
