923
Atoms. Timestep: 20948
Au 16.6411 22.4394 23.7991
Au 11.0909 28.468 16.389
Au 12.5442 16.8553 22.0981
Au 19.6675 10.6307 23.7275
Au 15.6475 16.6079 8.00467
Au 22.0703 9.30245 11.5517
Au 17.7922 19.7887 24.3218
Au 20.898 12.2413 30.5971
Au 30.3626 20.5759 8.06369
Au 30.5972 26.3776 17.7782
Au 13.713 21.8703 27.0123
Au 6.44197 22.9418 17.4685
Au 7.62861 24.8988 18.8705
Pd 17.62 14.9543 14.4519
Au 12.6156 28.9885 26.2737
Au 28.575 11.9921 17.2775
Pd 13.1942 22.0165 13.6957
Au 20.3606 20.5665 13.3491
Au 26.541 30.0349 13.6363
Pd 18.0009 19.4611 29.9288
Au 7.11021 19.9666 20.6861
Au 22.2432 17.1069 15.0188
Pd 12.4892 12.902 18.998
Au 17.1605 13.6398 26.9073
Au 28.732 26.6586 29.4466
Au 15.3325 23.7888 6.70762
Au 13.394 28.1537 30.4695
Au 23.0413 25.9345 8.76422
Au 16.281 25.5568 9.64563
Au 27.9872 22.5153 19.7658
Au 8.7178 14.1778 27.5688
Au 29.1877 11.9373 22.7563
Au 13.2834 26.7401 12.3895
Au 23.4418 15.986 32.3095
Au 11.6251 25.3658 20.1368
Au 27.1814 21.0097 24.2402
Au 28.4464 15.9029 22.4923
Pd 22.5919 28.8895 24.0668
Au 23.0306 28.3336 7.3757
Pd 22.345 22.8268 25.8752
Au 22.7736 31.45 19.2588
Au 22.0031 31.0054 12.6646
Au 15.5509 17.9116 28.699
Au 28.965 18.4086 23.447
Au 23.1636 9.65389 26.9223
Au 15.5501 17.705 12.7888
Au 16.1423 9.95559 18.5238
Au 13.5931 13.4731 12.4066
Au 26.1798 20.413 19.7608
Au 29.896 24.6011 19.7368
Au 12.6082 24.5055 25.6729
Au 16.1266 12.8456 13.8756
Au 22.5579 32.6487 16.8954
Au 6.64968 22.7601 20.4448
Au 34.6527 21.8517 16.3665
Au 14.7058 11.3491 22.9711
Au 31.6461 18.6479 9.51714
Au 21.3718 26.4475 23.3622
Au 24.9163 6.69542 21.8403
Au 20.1466 24.7801 18.1049
Au 13.6544 6.20628 16.4814
Au 22.2597 14.2774 10.1175
Pd 24.9081 17.4598 7.95573
Au 27.0216 30.5232 27.1868
Au 10.5389 13.1494 23.0451
Pd 22.3779 24.277 13.3672
Au 11.9072 21.3944 29.1109
Au 14.757 31.0499 27.2243
Au 30.5384 13.6651 18.5717
Au 23.549 31.297 30.4126
Au 25.844 27.3589 13.2983
Pd 19.9003 32.119 27.4293
Pd 16.4521 28.3439 9.11671
Pd 10.7265 22.4344 23.7212
Au 15.1014 30.6863 16.0416
Pd 15.7505 13.5865 21.7211
Pd 14.3443 10.896 13.0709
Pd 14.7512 15.4465 14.1692
Au 11.3911 15.2748 12.5845
Pd 13.4799 28.7745 23.5061
Au 20.3554 26.3485 13.7471
Pd 21.5354 12.6968 23.4064
Pd 18.0965 28.4585 20.6678
Au 28.4139 24.306 8.52773
Au 23.1274 10.2393 14.3864
Au 31.6047 29.2391 18.1618
Au 11.498 16.337 31.7677
Au 29.1845 29.7106 14.566
Au 14.5961 26.3959 32.2802
Au 9.73859 20.9092 21.1896
Au 11.8598 26.7483 24.3129
Au 8.60507 14.1075 16.3653
Pd 29.5531 17.8619 20.7339
Au 27.303 23.7983 10.9684
Au 13.0511 16.2393 8.78565
Pd 13.594 26.6303 21.9518
Au 18.1189 5.78138 17.7349
Au 25.2226 20.2085 22.3272
Au 11.1157 27.8735 21.9126
Au 21.3604 22.3464 11.2933
Au 20.6862 20.6738 9.21255
Pd 17.3611 12.3539 8.9756
Au 22.5895 17.2575 24.7792
Pd 16.98 10.1627 23.8274
Au 15.1701 24.5938 23.0639
Au 16.0899 16.8465 32.9474
Au 13.3154 9.24083 22.1569
Au 27.579 16.9518 7.97652
Au 11.4893 7.91959 20.6987
Au 23.7043 23.8252 10.679
Pd 25.0069 19.256 17.4991
Au 22.2696 16.2684 27.3474
Au 15.3585 15.1612 28.7431
Au 20.4716 25.4065 7.74291
Au 17.3752 10.5864 12.7974
Au 22.8122 24.6081 16.5854
Pd 16.8348 23.6905 11.6798
Au 28.4096 24.2048 28.1006
Au 24.7112 22.3071 24.4583
Au 26.1008 16.1098 17.465
Au 9.12186 22.151 28.3624
Au 11.5272 8.04395 23.9264
Au 16.3721 25.9764 27.4084
Au 33.2815 20.5704 20.6483
Au 21.1034 27.8417 9.36945
Au 6.8277 20.8215 15.7189
Au 15.1294 5.13898 23.4265
Au 19.9079 6.87423 27.2734
Au 18.5577 22.6345 17.268
Pd 24.1898 26.714 23.9634
Au 9.2402 26.703 20.3129
Au 24.5828 25.022 21.5252
Au 25.5126 10.6459 27.8913
Pd 12.3423 11.1328 26.3515
Au 32.1067 21.2729 16.8319
Au 24.6974 9.17982 12.352
Au 15.2208 28.9949 32.2789
Au 22.6385 29.2581 28.925
Au 26.9871 21.1737 17.1739
Au 8.80812 11.6139 26.8583
Au 14.4249 21.1639 6.42052
Au 31.4714 19.2344 18.8186
Pd 24.7939 26.2456 6.64725
Pd 16.1942 21.1838 26.1997
Au 18.0135 31.5387 16.0163
Pd 23.5989 21.904 12.7191
Au 13.7596 22.5965 8.76454
Au 17.7428 22.6188 34.3471
Pd 19.2977 25.5873 26.6803
Au 32.7458 17.0525 11.3285
Au 18.9585 21.0363 32.4964
Au 28.455 16.2413 12.2817
Pd 23.3455 21.4249 9.12446
Au 17.776 29.3994 31.6201
Au 8.65575 20.3442 23.5642
Au 9.95562 9.655 19.4237
Au 30.3045 22.5498 15.0406
Au 18.5328 30.5302 25.555
Au 19.4711 30.0425 13.2824
Au 26.0545 32.2564 25.4246
Au 14.5432 7.82384 14.4043
Au 27.8342 25.7844 17.575
Au 18.1587 11.0774 26.0348
Au 25.6724 15.1157 30.7527
Au 10.6221 24.6322 15.3867
Au 11.9385 7.91084 15.2227
Au 11.1426 28.2599 28.7094
Au 21.0414 11.8535 26.1495
Pd 16.8469 30.3115 13.8588
Au 25.1537 22.9143 19.6665
Au 22.4191 19.6656 16.8129
Au 22.8258 15.0797 22.8947
Au 18.1973 12.4992 22.3642
Pd 24.3392 16.1324 10.1716
Au 27.7298 9.58305 15.9848
Au 16.9195 12.0641 19.8764
Pd 20.7647 17.5615 17.323
Au 13.2059 6.57428 22.3394
Au 19.9835 33.548 16.6233
Pd 12.0022 17.2312 29.2543
Au 23.7659 26.8569 11.2986
Au 15.9706 17.656 23.2774
Au 12.9042 14.6824 29.9136
Pd 27.2744 18.5029 16.349
Au 17.7225 24.8914 7.34315
Pd 9.08154 20.0108 14.0359
Au 26.5655 24.1931 6.2882
Pd 12.2515 20.2627 25.2914
Au 23.6797 6.86625 16.377
Au 21.7431 13.5937 28.3587
Au 7.34206 25.3788 21.5797
Pd 17.3441 24.6609 18.6261
Pd 26.7048 13.4896 18.7722
Pd 23.1877 24.2479 30.753
Pd 18.7097 26.1935 31.1863
Au 24.2455 19.7718 4.28613
Au 12.1323 15.4936 24.745
Pd 19.0818 21.8799 22.7099
Pd 15.963 24.4684 31.0065
Au 8.89186 11.6503 21.1146
Au 20.4994 8.1778 20.6599
Au 18.2765 24.4548 22.5034
Au 13.0151 13.5763 21.6997
Au 32.4187 23.0283 21.2648
Au 17.1152 21.4643 6.52736
Pd 16.5879 20.3082 33.4095
Au 27.3439 30.1002 18.9724
Au 15.9013 21.6604 13.6654
Au 30.4909 12.6951 13.0951
Au 20.9499 17.2381 32.1336
Au 11.9219 20.822 7.35522
Au 32.8584 14.4428 17.3634
Au 27.515 17.0404 30.0502
Pd 10.118 23.8521 17.9164
Pd 29.1979 25.9876 10.915
Au 27.223 13.8988 24.2617
Au 19.212 17.4415 19.632
Au 20.3583 28.1199 6.74541
Au 21.9372 11.4451 9.71118
Au 16.6392 23.0576 20.9051
Au 19.553 19.6917 6.7648
Au 18.1591 16.2644 6.92335
Au 22.7115 6.18079 23.448
Au 13.1032 24.2475 31.5242
Au 16.9483 34.0612 23.1253
Pd 12.4798 24.3973 22.8097
Au 11.7064 12.7457 28.398
Au 17.8104 30.9383 11.2527
Au 22.5316 6.0682 20.747
Au 8.27278 20.379 11.3306
Au 25.5738 24.6896 8.85545
Au 27.1165 22.0546 31.461
Au 10.1063 20.7515 9.39468
Au 32.3728 14.3905 14.4002
Au 23.1698 29.4611 10.1699
Au 25.1789 30.6302 20.4531
Au 19.0742 23.7685 9.87153
Pd 11.8171 19.8479 14.4624
Au 23.2851 18.2613 33.7231
Au 23.2939 11.4524 29.2119
Au 19.1905 13.4517 24.7942
Au 15.3949 20.368 8.8362
Au 29.5055 17.568 17.8149
Au 18.1861 23.5542 5.14287
Au 28.6352 14.8416 16.9901
Au 15.6811 6.64647 21.1731
Au 21.1104 10.9915 16.2537
Au 32.4607 18.0445 21.0406
Pd 18.1039 13.1463 11.6193
Au 9.51851 17.7872 30.4727
Au 11.8437 7.68577 17.9811
Pd 13.9919 28.0033 16.7658
Au 20.5952 10.6303 13.3535
Pd 25.3926 10.6923 25.1529
Au 18.5322 9.14024 28.0401
Au 12.9011 30.1759 28.8161
Pd 24.395 22.4556 27.5309
Au 14.2984 8.7137 16.9709
Au 26.5494 19.5805 30.6264
Au 14.2343 10.0269 30.8033
Au 18.0942 17.2257 25.2392
Au 22.203 26.1917 5.87994
Au 29.6443 30.7425 17.1583
Au 12.968 29.4088 20.6075
Pd 13.6491 16.6212 27.0632
Au 29.3862 17.7727 14.8817
Au 8.11626 18.1165 25.3679
Au 16.6687 18.2584 20.1824
Au 8.75338 15.7577 11.791
Au 28.0212 11.9037 28.1065
Au 18.4525 33.4309 25.4871
Au 21.2882 25.3947 10.958
Au 28.0251 19.0858 25.9459
Au 9.5187 26.5539 17.6101
Pd 18.4926 17.5434 22.4017
Au 23.8723 11.216 22.0572
Pd 20.7398 13.1024 12.1015
Au 15.511 29.3089 25.3091
Au 28.7194 23.3354 24.3453
Au 16.4298 24.8833 33.7323
Au 25.754 18.2715 24.4274
Au 19.7668 15.4991 11.2338
Pd 33.1854 20.6175 14.3903
Pd 20.4706 24.9091 29.4632
Au 20.9745 10.2471 28.6046
Pd 29.7415 27.7639 22.3089
Au 16.4562 27.2443 18.4907
Pd 19.8254 13.088 9.54618
Au 18.4987 31.9169 23.0519
Au 27.9526 25.6297 25.6896
Au 12.5722 13.6201 9.92229
Au 15.8219 15.687 25.7359
Au 10.1817 27.4387 26.3388
Pd 25.2693 28.6635 28.0758
Au 16.0418 9.47189 21.3105
Pd 24.7665 13.6856 11.0833
Au 5.91311 23.0151 25.1255
Pd 20.5987 19.5866 30.8368
Pd 30.4104 20.7926 10.8284
Au 8.85073 11.286 23.9183
Au 24.5661 18.2156 19.9728
Au 7.60713 22.0301 13.1945
Pd 11.6641 18.8331 20.4261
Au 16.632 17.3701 15.3665
Pd 22.3134 21.8892 29.2091
Pd 11.5769 27.8861 10.7702
Au 15.4982 26.1554 15.3397
Au 33.5979 22.5922 18.7774
Au 25.7367 22.1843 7.77484
Au 29.5686 14.8771 14.3223
Pd 31.6855 16.9778 13.8211
Au 27.4456 13.68 21.4061
Au 5.49903 23.8935 22.6826
Au 15.5521 22.5039 18.4649
Au 22.5497 29.8694 16.8516
Au 20.5102 19.0481 23.9021
Au 26.5729 18.6642 28.1078
Pd 30.6 19.157 26.2554
Pd 17.7978 15.0053 9.36521
Pd 13.2422 14.8064 17.1711
Pd 18.2667 7.7761 25.1647
Au 27.042 27.2503 23.0592
Au 15.6397 12.2685 11.1273
Au 31.3184 16.0724 19.5073
Au 16.4034 15.1438 11.9329
Pd 18.1814 7.899 22.3484
Pd 19.9561 28.6769 30.2836
Pd 13.8099 15.9471 11.489
Au 18.791 9.83094 15.3138
Pd 12.144 8.36778 26.7439
Au 23.1339 23.7847 33.4368
Au 24.7307 28.8995 30.7844
Au 23.436 19.8173 24.4122
Au 23.1618 21.0253 34.0709
Au 26.1407 18.2017 5.75356
Au 22.6234 23.9068 19.5043
Au 27.5786 16.4364 25.1679
Au 15.2514 23.9369 25.859
Pd 20.909 26.7728 16.3371
Pd 21.6243 12.8218 18.1847
Au 17.7422 5.55203 23.5468
Pd 26.4951 11.7059 22.9443
Au 26.0802 23.7848 17.3462
Au 26.274 22.231 13.0314
Au 26.9594 25.0326 20.1337
Au 16.2469 6.07892 15.6867
Au 26.9424 15.2376 10.3164
Au 20.9457 17.561 12.7261
Au 12.4644 26.7111 14.8749
Au 27.9927 28.1762 9.60805
Au 31.1222 15.0736 11.9791
Au 18.4916 27.1751 28.626
Au 31.0408 28.2788 15.8218
Au 11.9656 11.2947 11.5372
Pd 19.1183 23.0103 19.9716
Au 15.4734 28.5608 21.0997
Pd 24.6088 23.3539 14.9466
Pd 28.5109 11.3788 11.8138
Au 13.5642 15.0793 32.7739
Au 10.7029 15.7451 9.92759
Pd 9.16171 27.2919 23.8177
Pd 30.8766 21.9663 19.2697
Pd 21.7432 15.0272 16.6492
Au 24.9439 33.8733 23.68
Au 19.2261 25.8585 20.4557
Au 6.64001 22.0342 27.5098
Au 20.314 5.74728 24.8029
Au 20.1879 29.7544 23.2659
Au 9.54592 19.9611 16.6629
Au 27.8917 20.1503 11.7872
Au 28.5601 15.511 19.6136
Pd 15.0858 16.17 20.9848
Au 21.2499 10.8044 21.4714
Au 14.237 21.6338 16.2827
Au 22.2889 21.7263 4.0793
Pd 19.6226 12.6902 19.9854
Au 14.0237 17.188 16.3502
Au 28.9903 17.0301 27.6312
Pd 16.4351 19.8535 11.3863
Au 28.9568 23.0871 17.3635
Pd 17.1814 12.0611 16.4172
Au 16.7278 10.0417 10.0406
Pd 12.0523 17.8398 11.0353
Au 30.1885 27.1475 13.585
Au 9.70451 20.1631 26.0948
Au 25.3859 19.9241 33.0341
Au 27.7991 27.5223 15.1933
Pd 18.4026 18.3674 32.362
Au 25.6702 23.8883 29.4227
Au 8.13062 22.9924 22.816
Pd 27.4778 23.4323 15.0765
Pd 23.3496 27.7052 26.4872
Au 14.1085 27.2997 9.91243
Pd 24.6013 24.9844 26.1614
Au 23.0915 11.7902 12.142
Au 28.8092 14.4027 26.6267
Pd 24.4218 20.1193 28.9289
Au 20.1072 20.1093 18.6536
Au 28.8549 18.8391 9.52436
Au 22.9364 8.56915 22.0416
Au 17.5141 20.7838 19.2016
Au 12.4469 10.29 18.4206
Au 20.0056 14.6242 21.9583
Au 27.3062 9.48339 13.3228
Au 25.7515 9.17817 22.3809
Au 25.6194 21.5635 10.4854
Au 17.8013 14.0202 18.3225
Au 25.5558 25.8846 15.6677
Au 21.3361 22.3062 17.7075
Au 28.4972 19.3474 6.59472
Pd 21.2335 21.7399 20.6426
Au 24.072 12.8977 8.57949
Au 23.9077 26.6252 29.3187
Au 22.2778 7.30149 25.8712
Au 34.0383 18.1309 13.5181
Au 22.2077 29.2646 31.7426
Au 18.6479 26.8051 9.03363
Pd 14.739 19.4006 14.8556
Au 29.0233 22.5258 12.6943
Au 31.5186 23.8981 17.2531
Au 16.8192 20.3525 21.8497
Au 22.6115 10.301 24.3454
Au 11.6557 26.0325 30.1103
Au 12.0925 22.5417 11.1113
Au 18.5889 15.6511 32.4829
Au 20.0696 23.9302 24.5166
Pd 20.2067 5.88383 19.3418
Au 20.6657 28.0064 21.3051
Pd 13.3333 25.1846 8.30468
Pd 12.6238 15.4734 19.802
Au 23.4863 23.8616 7.01348
Au 21.8759 21.7415 31.8971
Pd 23.9424 17.5717 22.4597
Au 8.87673 18.1545 21.88
Pd 10.1433 15.7719 22.7241
Au 19.8835 27.9344 32.9003
Au 7.49681 16.1911 23.4508
Au 18.8931 10.8179 18.0776
Pd 27.1887 29.8907 24.449
Pd 19.3987 22.5522 7.43603
Pd 24.7658 13.5882 21.1665
Pd 15.8372 14.4322 16.4239
Au 22.93 7.59918 13.6708
Au 16.2839 11.6438 31.2748
Au 23.9997 26.6099 32.2173
Au 11.073 22.5385 26.5839
Au 18.5657 25.8783 11.5945
Au 21.6527 26.7498 30.984
Au 15.7313 32.2237 18.163
Au 15.5941 6.53378 18.3532
Au 28.3925 11.8598 14.5442
Au 28.6157 25.1869 22.2999
Pd 15.797 18.9765 31.3054
Pd 21.1767 29.1064 18.986
Au 16.5743 22.8731 9.01227
Au 19.563 19.6787 21.2655
Pd 30.7542 20.1766 21.441
Au 16.4289 25.9619 20.9429
Au 15.1483 11.5248 26.0888
Au 17.609 24.895 14.0042
Au 22.5161 20.3085 26.8238
Au 8.96045 16.9857 27.9018
Au 19.417 17.9441 8.77784
Pd 9.38536 18.1409 10.4545
Au 20.2678 31.2046 17.7268
Au 15.239 22.6934 32.9751
Au 12.8755 17.3763 13.8209
Au 19.7578 34.4021 23.4385
Pd 20.8808 31.467 15.0988
Au 12.1763 20.3556 22.5966
Pd 13.3703 19.3559 30.2804
Au 17.8959 27.7213 13.8585
Pd 20.241 15.2388 14.1763
Au 17.9282 19.1719 27.2136
Au 9.19886 11.7072 15.4261
Au 18.5116 28.471 11.1983
Au 16.9352 31.1519 20.6741
Pd 8.79829 22.5478 15.8234
Au 21.3687 28.1828 12.0167
Au 19.2529 19.0548 11.2615
Au 24.6937 29.9562 25.5701
Au 26.4509 13.4435 15.9935
Au 20.199 20.3134 28.2467
Au 11.3706 12.5707 13.8043
Au 24.2504 14.5923 28.3633
Au 8.97226 13.6806 13.6009
Pd 26.5437 17.8605 10.7331
Au 9.91423 24.8792 25.2442
Au 17.6856 19.5651 13.7948
Pd 23.0568 15.8878 20.2713
Au 17.1735 17.4485 10.2374
Au 27.0561 18.2484 13.5223
Au 7.85501 25.0679 16.1804
Pd 30.2102 17.6287 7.55106
Pd 27.922 20.6648 14.5719
Au 10.2118 25.0094 27.9648
Au 22.1335 30.4519 26.4687
Au 17.5032 15.2252 23.3492
Au 14.0875 31.8348 20.3189
Au 15.5426 23.3569 28.4938
Au 26.0886 27.621 25.6144
Au 26.2718 11.1543 20.3115
Au 15.5609 18.4786 26.0482
Au 26.327 26.6448 30.6994
Au 18.889 12.5326 14.1435
Au 28.0404 24.4282 30.7625
Pd 27.1545 30.125 16.2489
Au 12.6138 19.5318 17.0512
Au 8.05536 13.6901 24.6938
Pd 18.1407 25.9953 16.3394
Au 26.1024 24.7272 23.8783
Au 14.4558 12.4784 29.2475
Pd 25.8825 29.1076 11.0933
Au 9.4483 12.3734 29.5504
Au 18.7405 15.9464 16.7199
Pd 20.3628 15.4887 8.46744
Au 14.4303 7.31663 27.7596
Au 19.2971 12.3924 28.2173
Au 20.2566 16.0127 24.3027
Pd 12.132 25.8989 17.4706
Pd 13.6836 20.6813 19.4036
Au 19.8934 29.4719 27.7296
Au 17.077 29.4015 27.7773
Au 17.2454 6.79275 27.9834
Au 27.2662 29.0117 29.7322
Pd 23.8268 28.7296 19.1181
Au 26.3583 26.1032 27.9857
Au 13.9545 20.391 32.7492
Au 16.7617 28.6073 16.1781
Au 25.931 27.7036 20.523
Pd 12.8087 20.1914 9.81288
Au 32.6422 21.0682 23.2367
Au 28.1426 28.1843 27.3541
Pd 25.9437 11.5199 12.1953
Pd 14.1597 22.085 30.4858
Pd 31.6207 18.6779 23.6881
Au 21.6068 13.2446 7.54628
Au 28.5928 27.2202 19.986
Au 26.5096 19.6419 8.391
Au 14.4401 26.6734 25.4469
Pd 25.505 20.4009 26.2907
Pd 15.969 26.5045 12.2081
Au 14.6565 28.2001 27.9455
Au 21.6805 19.3422 5.0875
Au 10.219 26.2092 12.4195
Au 20.1685 8.00104 13.2763
Au 24.6554 6.41849 19.0744
Pd 23.639 22.3697 21.8057
Au 14.5648 11.8964 17.3754
Pd 17.9332 23.2512 26.1821
Au 18.2552 5.06281 26.2087
Au 29.1992 13.6788 10.7419
Au 14.7686 21.9384 11.221
Au 17.7063 27.6991 6.69503
Au 15.1368 29.6801 18.6756
Au 21.8805 13.0695 14.5773
Au 31.768 21.4972 25.8289
Pd 11.5374 12.4156 16.5669
Au 11.5016 22.0429 16.1156
Au 15.4696 20.507 28.7749
Pd 29.765 22.7016 21.847
Pd 20.4172 30.3674 10.6327
Au 10.4624 9.73619 16.6796
Pd 12.7131 23.9015 28.5739
Au 19.6053 14.8347 29.9096
Au 7.38214 25.1879 24.3261
Au 22.3123 32.6934 28.3102
Au 23.2965 27.3791 21.4668
Au 21.0641 14.4694 32.2046
Au 19.8264 20.4566 15.9903
Pd 14.1056 24.567 10.8529
Au 12.4367 8.5129 29.4429
Au 25.0275 29.1876 22.8213
Au 26.5932 22.7727 22.1187
Au 27.0809 15.9425 14.9447
Au 15.1022 30.7216 22.6652
Au 17.1545 32.1467 27.4573
Au 22.9548 15.6266 7.70409
Au 15.1225 14.5165 9.61892
Pd 23.3238 19.2192 31.3109
Au 8.35708 21.5902 18.607
Au 16.1824 8.9512 26.4475
Au 17.2944 25.392 24.7816
Au 15.4111 26.5194 7.32617
Au 6.28004 23.4155 14.8975
Au 19.0527 6.77473 15.4198
Pd 34.0244 24.5599 16.9731
Au 17.6877 15.3575 20.6074
Au 13.5547 17.8159 33.021
Au 25.7043 14.8516 7.9687
Au 23.802 11.7173 19.2527
Au 29.9574 20.8766 24.03
Au 13.8045 13.8673 26.8711
Au 9.58179 12.116 18.3917
Au 10.62 10.1451 28.2423
Au 24.0722 14.3351 18.3445
Au 30.556 20.0897 13.7748
Au 23.0405 24.2825 23.6885
Pd 12.8223 23.2467 18.2872
Pd 12.845 29.7986 14.9388
Au 20.9254 31.1668 29.9783
Au 21.9223 26.5221 19.1703
Au 22.2329 18.544 28.8771
Pd 25.2819 8.42004 14.9281
Au 22.6784 15.1024 12.7498
Au 23.8525 32.8652 21.3864
Au 29.8274 16.2407 9.80048
Pd 24.9281 30.7676 17.5837
Pd 13.2419 19.2484 27.5881
Au 15.4207 19.3615 17.7226
Au 10.9477 29.3907 24.2095
Au 14.0036 8.31674 19.6938
Pd 14.2992 11.357 20.2507
Pd 19.7152 8.21516 17.7846
Au 10.5738 23.5016 30.2852
Au 25.5943 17.489 32.0974
Au 10.4756 19.2976 28.5201
Au 29.633 20.1767 16.5822
Au 14.02 10.1655 10.3803
Pd 20.4714 28.0321 25.5004
Au 30.3994 25.8081 24.4077
Pd 30.2045 14.063 21.2792
Au 15.6369 7.80991 23.6164
Au 24.3437 9.09402 19.7563
Pd 19.3811 25.9588 5.40097
Au 8.13799 14.5031 19.129
Au 13.4733 6.64932 25.1013
Au 10.1876 13.3369 11.2186
Au 22.1284 14.3261 25.4982
Pd 9.45392 26.9285 14.8771
Au 24.3964 8.19927 24.4875
Pd 16.9207 20.7937 16.1518
Au 22.3736 34.178 23.7002
Pd 23.4736 17.523 5.74022
Pd 16.7742 21.6742 30.9486
Pd 17.241 8.04219 13.9621
Au 31.5204 23.3925 23.8725
Au 34.0822 19.9058 18.2352
Au 28.4178 22.1477 6.81121
Pd 21.9145 21.4631 6.76727
Au 20.2894 23.0951 27.5399
Au 14.495 15.288 23.4528
Pd 21.8959 18.3119 19.5687
Pd 28.2739 9.78897 21.4162
Au 7.59758 18.2751 15.4913
Au 18.3041 30.9861 29.5709
Pd 10.4561 13.7637 20.4917
Au 23.4682 17.0092 17.6445
Au 16.1392 32.0383 24.8359
Au 19.7453 17.4613 29.2539
Au 31.4225 27.4632 20.129
Pd 24.5984 17.3031 29.5707
Au 26.385 16.0221 27.6322
Pd 32.1181 25.8317 15.3375
Au 13.7418 12.5964 31.8179
Au 17.8557 21.7531 28.3611
Au 14.3956 33.1768 22.7877
Pd 18.4921 21.6212 11.63
Au 20.7946 24.311 32.0525
Au 26.1326 31.7185 22.7216
Au 10.6396 13.1392 25.7308
Au 10.9171 20.2235 11.9074
Au 20.4371 9.24346 26.0572
Au 13.9038 17.7574 19.1479
Au 21.2122 32.4923 21.938
Pd 21.6181 23.3789 8.85206
Au 13.7707 18.6653 7.51692
Au 18.6091 13.0387 31.901
Au 23.3547 13.5995 30.8629
Au 12.7207 30.202 17.7791
Au 14.8912 20.1491 23.9708
Pd 18.2215 23.6626 31.9914
Au 13.4205 31.2465 24.8664
Pd 15.8776 14.4648 31.6161
Pd 22.5305 30.0504 21.5023
Pd 13.8799 9.37244 24.9247
Pd 15.9625 27.2498 23.3676
Au 28.3812 14.3881 8.27038
Pd 25.5476 15.8527 12.7477
Au 24.2366 15.2585 15.525
Au 33.7765 16.377 15.5736
Pd 32.8749 23.2946 14.8815
Au 14.4201 21.8718 21.7418
Au 26.5116 26.3769 10.8002
Au 22.1483 19.7581 11.398
Au 13.4024 17.8901 24.4824
Au 21.8714 25.583 25.837
Au 13.8175 27.062 19.3469
Au 19.7502 21.456 4.83871
Pd 15.8452 10.1532 15.1798
Pd 22.8012 19.5908 14.1193
Au 25.6385 15.5826 22.918
Au 25.9353 11.0279 17.5922
Au 13.7372 13.0886 15.1048
Au 26.7348 7.88923 20.1815
Au 14.9126 28.4177 14.0499
Au 7.82187 19.6093 27.9359
Pd 26.7968 12.5834 9.77475
Au 19.1195 25.3544 33.9198
Pd 23.6044 9.62364 17.0345
Au 26.5667 20.7953 5.44468
Au 19.6288 13.3657 16.5013
Au 8.49586 22.4688 25.4749
Au 16.2807 14.0787 7.23326
Au 26.7004 23.1033 26.2721
Au 18.0539 20.5342 9.10803
Au 21.0383 23.7587 5.51378
Au 11.2553 18.3312 8.50048
Pd 23.6661 12.3429 26.6345
Au 9.55352 15.8248 25.3683
Au 25.7812 12.6848 29.5613
Au 21.0419 34.2033 26.1079
Pd 10.4175 22.3616 13.5922
Pd 14.6005 18.116 10.1217
Au 25.9427 8.21334 17.5598
Pd 8.70286 16.7627 17.4868
Au 25.1353 19.724 12.474
Au 27.5132 9.71805 26.5876
Au 29.7653 29.6608 19.981
Pd 12.5455 26.4636 27.4437
Au 18.0908 18.614 17.3775
Pd 28.1006 20.4231 21.742
Au 24.5643 31.3169 27.9407
Au 31.8793 22.2608 12.5586
Au 22.4196 19.6784 21.8586
Au 14.0433 10.009 28.0655
Au 18.2669 8.40315 11.4799
Au 14.3496 25.8112 29.4098
Pd 17.1554 8.27721 16.7917
Pd 23.412 27.2575 16.8775
Pd 16.6624 11.1731 28.3815
Au 30.2862 16.6717 25.1659
Pd 6.66517 20.3639 25.4321
Au 8.11269 14.1411 21.8587
Au 10.6146 14.7048 17.9318
Au 17.1753 27.2881 33.1079
Pd 23.2784 26.6285 14.1689
Au 28.2202 28.3012 12.2853
Pd 8.71046 16.1104 14.529
Au 11.275 28.0835 19.0429
Au 29.1621 22.1336 29.5943
Pd 19.8044 15.0566 26.9696
Au 23.9176 29.244 12.8739
Au 11.2242 14.981 15.2647
Pd 20.446 18.119 26.5142
Au 27.8548 9.65185 24.0283
Pd 17.9408 24.4048 29.0745
Au 20.6998 8.12614 23.5438
Au 13.5437 22.4182 24.2572
Au 14.8642 24.2404 13.4481
Pd 22.148 13.349 20.7842
Au 9.64625 20.7054 30.6254
Au 18.612 10.7174 30.2925
Au 22.0822 22.0754 15.0454
Au 25.1389 24.7808 12.7733
Au 31.9885 18.6435 15.9804
Au 19.7678 23.7658 12.7617
Pd 23.6284 17.5881 12.4065
Au 11.0791 23.1812 8.6374
Au 11.9529 22.6024 20.8753
Au 11.0856 28.5306 13.402
Au 9.30863 18.9145 19.1728
Au 29.0015 19.5968 28.6784
Pd 14.2104 24.3453 20.3739
Au 20.162 5.79233 22.1156
Au 24.6549 13.341 13.7859
Au 9.46051 23.001 11.1655
Au 9.38138 23.5683 20.437
Pd 18.1908 17.0144 12.8285
Au 12.7494 8.84057 12.6401
Pd 14.333 16.7361 30.7704
Au 21.7593 26.1898 33.6796
Au 19.7941 21.1629 25.6075
Pd 11.2236 17.7862 26.4061
Au 18.2302 32.8493 18.5743
Au 30.1889 23.4971 10.4702
Au 16.3319 13.0697 24.3689
Au 11.7214 10.812 23.7303
Au 10.6648 9.99062 13.8671
Au 7.30847 17.1076 19.9314
Pd 11.6168 11.1849 20.9793
Au 24.638 25.7598 18.7427
Pd 10.1241 9.67387 25.5722
Pd 15.9777 6.21591 25.7416
Pd 25.1832 20.628 15.0736
Pd 26.8098 21.4954 28.5873
Au 16.9739 18.7653 7.26785
Pd 24.2441 20.0329 6.88016
Au 7.63357 18.1055 12.7204
Au 19.4454 29.1084 15.9716
Au 25.7019 11.0308 14.8539
Au 28.4955 11.8765 25.4204
Au 9.94944 16.3815 20.1214
Au 26.0957 27.9797 17.7077
Pd 13.685 19.6671 12.3523
Au 24.4948 21.8146 31.1201
Au 11.3268 15.2546 27.4633
Pd 10.0344 15.1402 29.7798
Au 22.1388 15.9607 30.0094
Pd 14.6798 12.1149 8.65579
Pd 20.8289 32.0037 24.6745
Au 20.8823 33.3674 19.2613
Au 15.5184 30.1527 29.8682
Au 21.7908 28.8417 14.5779
Au 24.5432 22.3933 5.17285
Au 21.4211 8.35714 15.7153
Pd 24.2606 18.0363 26.8363
Au 15.0335 14.0678 19.1386
Au 22.7658 24.485 28.1238
Au 6.50078 18.6644 23.1258
Au 9.97411 25.1712 22.5267
Au 28.2158 21.6735 9.42813
Au 30.5222 23.8262 26.4094
Au 24.3705 13.0905 24.0656
Au 30.7787 24.6274 13.0666
Au 16.2486 16.4805 18.1543
Au 33.2533 17.2539 18.0472
Au 33.1019 27.0706 17.5476
Au 23.3534 20.6778 19.4108
Au 13.2161 13.0029 24.4133
Au 17.7497 7.87184 19.5847
Au 18.6709 10.1943 20.874
Au 12.9411 10.4094 15.328
Au 31.1014 16.3017 22.5214
Pd 16.2675 23.542 15.9599
Au 22.2978 7.62327 18.533
Au 34.6992 18.9652 15.9224
Pd 18.778 27.1073 23.164
Au 29.0503 28.0558 24.873
Pd 25.8607 15.8089 20.1865
Au 15.8301 29.1495 11.5657
Au 20.9448 19.5971 33.5531
Pd 28.8722 28.3572 17.5382
Pd 28.8794 20.0523 19.1396
Au 10.619 17.6801 15.6282
Au 16.3496 27.436 30.2949
Au 15.5019 8.6227 11.9845
Au 11.5308 25.2105 10.3589
Au 11.8456 21.7551 31.879
Pd 18.7704 33.6011 21.0347
Au 7.02363 15.7943 26.1732
Pd 27.1725 17.9648 19.078
Au 22.1584 18.7007 7.91356
Pd 30.6807 13.0718 15.9548
Au 25.6049 24.4191 32.0908
Au 21.3846 30.2493 8.16
Pd 12.0867 24.4372 13.063
Au 6.97097 19.1895 17.9577
Au 31.3484 25.4308 21.9099
Au 27.3634 13.7329 12.8292
Au 24.6949 15.501 25.5268
Au 20.2315 24.1293 15.461
Au 32.6959 25.1211 19.4141
Au 23.7565 31.2143 14.8393
Pd 25.4246 22.4107 33.6855
Au 17.6687 16.3638 27.8024
Pd 9.93818 9.43925 22.2535
Au 29.0413 21.5629 26.7526
Pd 14.3034 18.9767 21.5382
Au 17.9295 5.41227 20.677
Au 21.1568 17.1388 21.8843
Au 23.7523 12.4 16.4217
Au 11.4901 17.2861 18.0561
Au 26.7639 17.9767 21.77
Au 19.7376 22.3086 30.2111
Au 13.3507 24.1507 15.6669
Au 18.9056 13.6699 7.08182
Au 7.71759 24.4673 26.9824
Pd 24.8846 28.8349 15.4208
Au 29.9477 14.1889 24.0767
Au 24.21 19.0105 9.93392
Au 31.1013 15.9785 16.3975
Au 23.464 32.9667 25.9286
Pd 21.4959 10.1686 18.882
Pd 11.2175 13.4879 31.4899
Au 21.2514 27.0677 28.1161
Au 19.4251 10.7437 10.844
Pd 18.4011 22.2686 14.4556
Au 10.6879 18.3278 23.8376
Pd 17.7932 27.8253 25.7189
Au 27.8482 14.4233 29.16
Au 23.4368 31.5009 23.6645
Au 24.5414 10.7549 10.0875
Au 26.2037 13.2222 26.7129
Au 19.6849 30.8404 20.5042
Au 30.2211 18.1879 11.8628
Au 32.6387 19.6772 11.8868
Au 27.2643 26.5158 7.72998
Au 12.6789 23.2709 6.44188
Au 19.1728 27.5075 18.3011
Au 21.0445 24.1946 21.7794
Au 25.1792 27.8048 8.88337
Au 27.9348 25.4013 13.231
Au 17.4386 29.4648 23.205
Au 13.2628 29.4485 12.1567
Au 18.801 29.5643 8.60011
Pd 28.014 9.71361 18.6999
Au 11.8338 11.0603 30.4632
Au 16.1581 8.77337 29.4584
Pd 27.6226 29.5469 21.6842
Au 17.2921 13.5484 29.6222
Au 21.6179 21.7425 23.5208
Au 17.8512 30.0139 18.3165
Au 10.2449 17.7661 12.9916
Pd 19.5339 17.9552 14.9804
Au 24.0521 21.9667 17.1782
Au 11.0652 21.1425 18.7287
Pd 28.9042 12.0001 19.9557
Au 8.56231 24.4696 13.577
Au 20.5741 15.2028 19.1493
Au 21.1021 5.89045 16.8316
Pd 24.8559 17.8752 15.0634
Pd 14.8104 25.1247 17.7677
Au 30.1102 26.3747 27.1154
Au 20.763 17.0463 6.31426
Au 6.02814 21.2911 22.8938
Au 11.3709 19.0591 31.9288
Au 21.8303 17.1563 10.148
Au 20.5145 22.6135 34.1131
Pd 12.3783 31.1303 22.4762
Pd 29.5248 25.2428 15.4942
Pd 17.2525 16.6453 30.4536
Au 16.0695 33.6428 20.6102
