923
Atoms. Timestep: 20524
Au 7.67637 24.9383 24.1575
Au 19.9392 22.3038 10.7466
Au 10.4714 18.0558 30.4262
Au 16.6114 11.4906 22.43
Au 15.422 35.1704 21.458
Au 10.9242 31.4036 24.6407
Au 31.0538 13.882 18.3304
Au 7.02106 27.3018 20.2552
Au 28.476 24.0472 11.819
Au 18.7272 21.2959 32.9728
Au 24.918 30.47 11.4701
Au 9.7302 13.9989 22.8454
Au 25.0746 14.9899 16.6341
Pd 26.9697 18.6756 18.8708
Au 9.10752 11.4036 25.899
Au 33.0951 13.3616 16.8108
Pd 10.5565 22.4077 24.9663
Au 12.0555 15.8201 30.646
Au 21.2039 12.5731 22.5876
Pd 24.5779 12.8802 25.8982
Au 33.8682 17.497 25.8559
Au 18.5073 7.41401 22.4051
Pd 25.6892 17.8233 16.3005
Au 12.9778 9.60968 14.3311
Au 23.8725 19.9493 15.9164
Au 14.9917 32.533 21.6321
Au 10.6503 16.4959 23.5834
Au 15.1695 28.1509 16.6176
Au 11.1862 30.2191 13.851
Au 29.4351 20.0666 13.8511
Au 15.3822 20.8562 21.1627
Au 21.8498 24.5302 27.5644
Au 19.681 25.7353 28.578
Au 31.1881 25.7446 15.9845
Au 28.8601 17.6184 8.07193
Au 6.33145 22.1443 14.98
Au 23.5252 12.5085 20.8469
Pd 26.3576 18.5043 8.51567
Au 33.4709 13.2784 24.3377
Pd 20.1394 25.3785 23.9178
Au 14.9016 22.6738 17.5748
Au 19.8137 20.1596 24.4257
Au 5.78273 15.3811 16.8726
Au 20.6358 21.3122 30.906
Au 25.361 13.6351 22.7298
Au 26.036 16.3274 32.2247
Au 17.7017 15.4223 13.6608
Au 19.3254 19.8185 14.3116
Au 25.9357 28.1029 10.6784
Au 18.2419 7.36355 13.6548
Au 14.9749 31.8915 13.8806
Au 27.533 9.19426 22.8627
Au 28.2692 7.36832 19.3624
Au 15.1533 19.047 5.7679
Au 27.5958 17.9942 13.7514
Au 6.19925 22.6528 23.2638
Au 30.6902 21.3225 20.231
Au 5.28408 16.0117 19.4439
Au 29.1234 10.6385 13.6832
Au 12.0201 12.6118 22.1999
Au 14.814 20.3067 13.4792
Au 26.9206 25.6711 30.5014
Pd 24.2173 16.0688 10.1751
Au 18.5016 29.2151 31.5614
Au 28.3908 9.55974 28.2825
Pd 21.7865 17.7112 27.2119
Au 29.2157 11.2501 16.4382
Au 14.7964 26.0799 29.0229
Au 23.4411 12.1218 18.0553
Au 15.5895 19.9884 10.9655
Au 27.1826 13.0432 9.3016
Pd 15.8234 14.2595 25.4387
Pd 21.3574 16.2413 24.995
Pd 26.0427 19.3342 29.7004
Au 17.2173 20.7548 5.80595
Pd 27.2753 12.7267 20.7984
Pd 26.9355 22.8328 26.7423
Pd 19.3669 10.9551 12.8003
Au 13.2968 22.9741 31.8166
Pd 17.7184 31.622 25.3397
Au 27.8217 12.8942 14.6101
Pd 29.809 14.1135 16.0156
Pd 15.9902 27.4541 31.2197
Au 15.5004 15.7592 10.8147
Au 31.9877 22.4955 26.9282
Au 10.0961 13.2947 27.4854
Au 21.5174 31.337 28.2732
Au 17.2615 21.4865 13.1857
Au 17.4739 26.189 24.9005
Au 15.0179 25.5275 23.6078
Au 8.89199 22.8275 22.8143
Au 21.2794 20.0524 16.3973
Pd 22.2993 22.3858 15.2044
Au 14.2212 10.9401 21.177
Au 18.5323 12.5615 24.0232
Pd 31.1423 27.0302 24.7487
Au 9.94128 15.5791 28.9464
Au 7.55083 13.4539 16.6926
Au 8.53628 13.9295 25.2963
Au 28.495 11.5374 11.2287
Au 32.3938 16.0376 16.674
Pd 9.92261 20.9629 14.2147
Au 8.41343 23.9875 17.4951
Pd 15.9236 25.1829 13.3608
Au 25.2519 19.2925 6.06457
Au 15.1373 22.8724 14.6426
Au 22.9891 14.3129 23.9105
Au 24.4645 9.13107 11.7463
Au 11.437 28.1395 15.4407
Au 17.9085 9.63225 24.0189
Pd 25.003 13.4012 10.9607
Au 13.7475 27.5307 22.0656
Au 30.8323 25.0058 26.6632
Au 7.52123 17.1706 13.0187
Au 15.8373 24.9789 32.4849
Au 24.0597 17.172 7.39855
Pd 10.6558 23.2106 15.9291
Au 8.49701 21.4291 9.90183
Au 18.2747 18.5214 4.67108
Au 4.78487 20.4615 22.2702
Au 23.0332 27.7825 15.8158
Au 15.7895 6.63387 22.7067
Au 17.6722 35.3836 23.1861
Au 24.3265 22.8297 21.2301
Au 25.5881 7.38031 18.3175
Au 22.4103 26.1541 13.7642
Au 27.359 13.8173 12.0065
Au 22.6289 13.2827 29.075
Au 22.3411 26.7226 11.0253
Pd 29.2913 11.2158 22.2812
Au 6.35489 24.2528 13.2593
Au 32.4789 17.2175 14.1429
Au 20.6153 28.2536 33.1834
Pd 12.7249 15.7236 11.1734
Au 19.934 15.384 27.2961
Au 13.7098 12.7738 26.0053
Au 13.2764 10.7187 23.9936
Au 27.8757 19.2191 6.27139
Au 15.148 29.7858 21.4166
Au 22.4758 8.87275 24.8826
Au 17.8824 28.822 10.0141
Au 9.56917 28.2049 20.5133
Pd 17.8175 30.0458 27.638
Pd 17.809 31.3081 16.5736
Au 14.1331 25.085 18.8899
Pd 10.6645 23.2902 12.9121
Au 13.805 17.0266 6.79603
Au 32.2698 18.512 27.7966
Pd 19.3415 11.0681 16.1587
Au 7.88536 15.2955 18.8928
Au 22.3432 21.771 28.4201
Au 18.0252 19.4816 22.1238
Pd 26.912 27.5638 17.6766
Au 13.9126 20.8043 23.7944
Au 7.33843 18.0502 20.5182
Au 6.89557 18.2061 25.8551
Au 23.425 16.5501 32.7603
Au 12.2851 25.4724 27.057
Au 16.4564 30.4639 11.9271
Au 21.0345 30.0221 31.0295
Au 14.0715 26.1136 11.3136
Au 16.8746 21.3242 15.9771
Au 20.2298 7.68812 17.3111
Au 26.6996 16.7666 6.56772
Au 9.09059 16.0867 21.2444
Au 29.0933 7.48858 24.304
Au 27.1184 22.8588 21.1378
Au 13.4274 12.1127 15.7483
Pd 21.7806 28.3681 19.7277
Au 11.3597 25.6196 8.90457
Au 12.4245 27.9769 10.1604
Au 11.1889 11.5993 14.2407
Au 23.0742 22.0169 17.874
Pd 22.0475 16.8919 19.56
Au 26.8679 24.6516 14.3698
Au 19.1971 33.5982 15.738
Pd 25.5263 20.5993 25.94
Au 26.3525 11.4475 24.1168
Au 16.5427 26.8442 8.37814
Pd 12.6175 26.2931 24.5294
Au 14.7386 14.4457 6.32171
Au 25.2628 21.8386 28.8117
Au 21.7781 10.64 29.1372
Pd 24.2015 16.5619 27.9905
Au 24.626 22.458 24.0164
Pd 17.0387 27.019 14.9741
Au 11.7031 11.0075 26.5156
Pd 28.2048 20.5862 24.9626
Au 20.6521 13.4972 25.3009
Au 24.7727 7.32946 26.2199
Au 18.8989 26.6421 21.7501
Pd 25.7853 25.1755 17.1148
Pd 19.732 29.2595 21.3359
Pd 20.9641 8.86744 19.9549
Pd 22.014 18.7046 23.7549
Au 9.47854 18.1208 25.3578
Au 13.1343 32.7086 23.7097
Pd 24.2655 15.1231 30.3563
Pd 15.3312 23.557 30.202
Au 26.1866 27.3831 22.9625
Au 18.4433 7.72247 19.6304
Au 22.2571 19.2032 32.4374
Au 15.1146 28.5111 10.1795
Au 30.7785 9.536 23.6784
Au 26.9118 11.5238 27.0985
Pd 22.3295 10.0732 21.9618
Au 16.8195 26.369 11.0814
Au 14.9265 7.06886 20.0618
Au 17.0182 29.0444 25.2458
Au 6.17809 24.5573 16.1365
Au 28.4275 26.7711 19.7949
Au 26.605 15.5603 20.901
Au 28.7952 15.723 30.151
Pd 17.3299 18.4725 24.5624
Pd 26.1481 28.1911 20.3105
Au 7.3214 23.7212 10.7637
Au 22.6097 8.1323 15.5448
Au 23.8174 17.7657 30.4054
Au 7.63145 13.545 21.1022
Au 30.0147 9.14211 26.2438
Au 26.2689 25.2117 27.8814
Au 23.7819 26.9156 21.0395
Au 6.33144 18.4293 23.2184
Au 8.73369 25.2562 12.3973
Au 17.2531 7.00357 24.9366
Pd 20.1955 9.03579 14.6472
Au 6.16961 19.9709 16.6678
Au 18.8449 19.1404 19.6082
Au 8.03113 22.0353 12.6002
Au 31.2007 28.7039 22.5629
Au 15.9812 9.255 18.6986
Au 27.8979 22.9288 9.36139
Au 23.1416 14.268 6.94851
Au 29.9385 13.765 26.4532
Au 27.8535 6.54733 21.9704
Au 10.172 25.0717 28.8386
Au 28.5956 26.9822 24.0077
Pd 27.7282 18.2082 31.4159
Au 14.5749 16.21 29.1917
Au 10.09 22.1134 18.7632
Au 16.9198 19.6331 31.7104
Au 11.921 32.2221 18.2118
Au 22.8206 26.7982 33.8453
Au 17.647 32.7971 22.8539
Au 20.1572 24.1954 30.8629
Au 10.5301 10.7775 23.7865
Au 12.9181 11.3158 12.2501
Au 22.081 33.575 20.3127
Pd 29.1558 11.9214 18.9605
Au 19.7588 22.7446 28.5001
Au 26.3608 28.9458 13.2486
Pd 15.8128 25.9932 20.8899
Au 21.7926 32.0775 25.5833
Pd 23.775 18.1187 21.1882
Au 8.87445 22.6916 28.071
Au 27.4921 29.6233 26.3133
Pd 15.9096 18.6495 17.4171
Au 16.9554 32.4957 28.1253
Au 29.3245 20.8122 16.485
Au 12.3522 9.80352 16.9599
Au 30.3599 20.2415 26.7132
Au 18.2079 26.668 32.6044
Au 14.4324 23.6459 27.5034
Au 8.45505 16.14 16.0749
Pd 16.4216 11.3426 27.846
Au 28.7658 15.994 12.393
Au 33.489 16.9966 21.0998
Au 19.0369 5.28275 18.5266
Au 16.5073 27.6956 22.8902
Au 32.118 14.4948 14.519
Au 13.7878 8.43372 22.1544
Au 18.0486 28.3571 12.7104
Au 8.04495 29.2083 18.3664
Au 9.95991 23.6492 10.3004
Pd 20.2596 12.7543 28.0009
Au 22.5784 25.6366 31.2027
Pd 19.2883 17.8229 26.2233
Au 12.7055 19.5591 10.3663
Au 6.23735 24.8793 18.9985
Au 16.2701 16.3459 15.9617
Au 14.4547 28.4049 24.7049
Au 21.8815 16.3824 5.69494
Pd 18.843 27.5861 26.7448
Pd 13.7213 30.1178 12.0456
Au 26.8921 10.4053 15.3398
Pd 28.5396 28.6625 21.83
Au 8.3995 20.4833 24.3324
Pd 19.7775 7.89497 24.9352
Au 28.745 20.2547 8.69771
Au 13.394 21.6845 29.2948
Au 23.8604 15.2208 21.0088
Au 32.4329 23.3295 19.4262
Au 28.932 21.2709 11.2751
Pd 17.057 23.0659 28.1274
Au 24.8335 18.6952 13.6871
Pd 18.8372 25.8746 13.421
Au 16.2296 16.4493 5.33852
Pd 20.4303 17.765 17.6694
Pd 23.666 21.5382 32.9455
Au 17.926 12.8762 29.5515
Au 12.8064 26.7459 17.2797
Au 20.8665 29.0065 17.2305
Pd 15.6286 13.7874 15.1758
Au 26.6768 13.9959 30.8562
Pd 20.1936 21.1064 21.7337
Pd 14.9974 23.0384 22.6802
Au 21.0676 11.6726 19.8176
Au 5.82148 20.5561 24.9196
Au 8.05118 28.2298 22.8389
Au 25.5512 20.477 20.4232
Pd 32.8242 20.135 25.5752
Au 21.9535 10.1515 12.6379
Au 19.0251 31.2811 29.6491
Au 16.5303 29.7755 14.6869
Au 15.9652 20.8505 29.3702
Au 7.46504 20.4079 27.2269
Au 15.854 13.8251 17.8076
Pd 14.8238 26.0051 26.1869
Pd 9.15755 25.8593 19.2125
Pd 15.8373 20.0256 8.21505
Pd 17.9377 13.516 26.791
Au 14.2778 13.5865 20.2371
Au 6.02284 13.4591 18.915
Au 24.6969 10.077 25.8615
Au 19.9305 22.3047 13.5254
Pd 16.391 33.4576 15.7743
Pd 28.7398 17.2797 20.261
Pd 21.6606 22.3883 6.54288
Au 23.2231 24.8528 16.221
Pd 15.3638 11.0331 11.1379
Au 20.1069 13.7786 9.60647
Au 26.477 5.46492 19.9073
Au 29.9476 9.20298 18.2826
Au 25.7806 16.2039 12.5344
Au 24.8931 16.8136 19.0063
Au 29.6841 22.439 28.4411
Au 19.5354 18.9966 31.8097
Au 28.862 17.9906 23.1481
Pd 21.1109 25.7015 20.1766
Pd 17.3807 16.7787 22.2616
Au 11.4493 24.4806 18.2268
Pd 22.1116 14.2354 31.6022
Au 16.1466 13.4697 12.209
Au 9.80042 26.0457 16.4583
Au 29.4808 25.4803 13.8908
Au 16.0061 7.26977 15.288
Au 21.5513 10.0775 17.6016
Au 28.51 25.4437 16.5667
Au 24.2385 32.1679 21.3504
Au 21.8737 6.73017 26.2955
Au 12.8631 29.667 17.4813
Au 21.0589 24.6751 9.46761
Au 13.8726 26.5433 14.6888
Au 12.57 31.8777 15.5307
Pd 25.2177 23.7157 31.4275
Au 19.9404 23.8335 21.7141
Pd 19.6713 14.8521 22.8601
Pd 18.5348 12.928 18.3676
Au 20.6326 25.4624 33.2707
Au 16.6848 21.1137 23.9714
Pd 26.7696 20.2341 12.5056
Pd 27.8624 22.2992 13.8367
Pd 14.33 11.3894 18.2089
Au 14.4053 27.9729 19.3501
Au 24.4542 30.9541 14.0262
Au 8.5313 21.489 16.4464
Au 12.7109 20.134 21.3872
Au 18.3939 24.8227 19.7198
Au 7.4121 19.7534 14.152
Au 20.2004 27.3646 15.1916
Au 23.1318 8.7845 27.7527
Pd 11.3037 19.5991 18.8703
Au 23.9542 29.9032 19.8444
Au 10.393 13.9652 20.065
Au 22.0582 30.5735 21.7644
Pd 25.3891 18.3294 10.9712
Au 22.2691 11.0712 15.2624
Au 7.64305 26.3554 14.6625
Pd 21.8275 16.3297 22.3151
Au 15.2044 11.4011 13.8041
Pd 12.721 24.3745 29.5765
Au 12.5458 21.8624 14.57
Pd 26.4465 6.93908 24.2456
Au 9.09256 29.4904 25.0603
Au 14.1181 20.2145 18.8911
Au 21.0047 16.802 31.6448
Au 12.3607 21.8045 17.4368
Pd 16.8252 20.9147 18.8205
Au 25.4043 13.993 13.9708
Au 4.72544 18.0182 21.0987
Pd 14.1824 28.6383 29.6358
Pd 23.6348 24.2994 10.7558
Au 29.0305 11.4399 25.0824
Pd 27.9184 24.2596 18.8909
Au 23.3298 6.42005 24.0394
Au 24.2029 21.9654 6.52738
Pd 11.0333 17.9733 21.0757
Au 17.3534 14 9.6383
Au 19.2942 10.2196 21.6784
Au 13.2337 24.2564 13.176
Au 19.9599 15.1585 18.4645
Au 24.4229 26.3942 9.17669
Au 28.5263 19.8951 21.1784
Au 32.2163 11.6207 22.5027
Au 27.7279 20.5108 27.7583
Au 25.9579 22.9631 11.7307
Au 19.3771 17.4697 29.041
Au 25.1925 15.5992 25.7288
Au 24.5891 12.3433 8.37038
Au 19.0101 30.1056 18.8876
Pd 19.1029 32.734 18.4738
Au 15.9186 23.416 20.0281
Au 33.1986 18.6403 23.3113
Au 30.7839 13.5533 23.7285
Au 27.3653 13.2951 17.2943
Au 24.5637 9.65065 17.0195
Au 17.1924 22.0208 10.044
Pd 10.8646 17.7281 11.5039
Au 16.4702 8.99166 21.3996
Au 13.1353 9.0851 19.4248
Au 24.0489 31.5242 24.0556
Au 15.7059 25.1031 16.3207
Au 18.9645 16.0477 5.48346
Au 12.9826 15.1065 24.2231
Au 32.6678 24.7507 24.7811
Au 10.384 27.4097 27.1438
Pd 18.9008 17.1791 15.3498
Au 12.5761 14.4234 27.9762
Pd 21.997 22.1786 23.34
Pd 25.5175 22.9874 18.7956
Au 12.0169 11.8395 19.525
Au 29.9344 23.3397 15.4071
Pd 17.5134 15.4921 28.735
Au 27.2255 13.7944 25.7344
Pd 30.0729 24.5893 23.8555
Au 30.6722 19.9463 23.6475
Au 22.1866 30.6435 11.9488
Au 20.8301 28.3691 12.7015
Pd 17.26 28.4162 20.4156
Pd 23.7754 9.92494 19.6475
Pd 15.3615 18.6821 22.6076
Pd 8.28978 16.0466 26.8102
Au 18.7769 10.3065 18.834
Au 27.6394 15.8082 27.4074
Au 24.7894 27.1463 29.7177
Au 20.4594 10.8332 10.2083
Au 21.0828 15.4829 16.0653
Au 18.4007 6.04947 16.0172
Au 17.1569 5.54687 20.6321
Au 23.0543 17.3218 16.9959
Au 20.3783 14.0936 6.77821
Au 17.8468 27.7572 29.3687
Pd 9.52652 26.8734 24.645
Pd 22.9613 13.7529 15.2764
Au 13.0973 19.6675 7.68269
Au 27.405 15.6133 15.1589
Pd 10.4221 30.5354 16.6211
Au 23.3215 24.2098 33.3807
Au 5.41236 22.5366 20.5949
Au 21.8724 15.9504 29.2603
Au 12.2016 29.3548 20.3173
Au 31.7035 11.4378 25.3821
Au 12.9537 17.8159 23.2179
Pd 15.3543 22.9897 11.8202
Au 22.9686 28.2452 31.6431
Au 16.2509 32.7705 18.4308
Au 10.0188 30.767 19.4673
Au 29.3093 27.4964 26.6666
Pd 22.1946 20.1073 13.6611
Au 10.1053 30.1376 22.4031
Pd 14.1469 31.2318 19.3223
Au 11.6755 19.7825 28.5713
Pd 24.767 29.1389 25.1793
Au 20.9851 22.5225 25.8719
Au 8.24922 20.1173 18.9181
Au 21.5496 31.1973 19.0596
Au 23.6828 19.3211 18.7278
Pd 25.1769 23.0227 8.94206
Au 21.491 19.0184 29.6699
Au 32.5697 13.258 27.1606
Au 26.5444 30.6873 21.047
Au 29.7974 8.37431 21.4495
Au 19.9907 31.1324 23.619
Au 22.7878 20.5959 25.5891
Au 15.4444 34.0754 23.9069
Au 13.8652 26.3868 8.52603
Pd 23.7051 12.1152 13.0849
Au 14.9675 30.5971 27.8252
Au 18.4051 14.465 16.1722
Pd 25.7625 20.6554 17.6381
Au 20.8512 24.5715 12.203
Au 20.6784 28.9929 9.99434
Au 13.6664 26.026 31.4189
Pd 6.38162 22.2764 18.0275
Pd 28.2181 25.0894 25.8965
Au 20.0132 35.0664 19.3376
Au 19.9135 20.4884 5.79922
Au 16.8832 22.7914 7.50301
Au 18.5436 19.5125 16.9811
Au 17.5252 25.1755 30.3518
Au 7.29006 26.7957 17.3948
Au 25.5243 31.7896 16.3229
Au 19.9668 8.46584 11.8658
Au 6.24535 17.5478 15.29
Au 31.2126 18.6399 16.1401
Au 32.602 21.0598 22.0176
Pd 29.9797 16.4603 17.729
Au 20.6671 32.1977 13.8239
Au 18.0536 16.7321 31.3928
Pd 25.0858 12.1988 15.9584
Au 26.6672 21.3366 7.3195
Au 11.221 13.2654 29.8996
Pd 17.173 18.0085 9.7383
Au 24.6939 7.10642 13.7857
Au 21.9854 33.048 22.9852
Pd 13.8864 16.242 26.4779
Au 14.8989 16.1367 18.6266
Au 15.3279 12.9342 8.46195
Au 13.5566 33.8785 19.7887
Pd 13.5668 13.7329 13.4179
Pd 16.4602 16.8105 26.7443
Au 30.7814 28.1381 19.8788
Au 19.8008 32.1442 21.049
Au 29.5302 14.0502 10.3787
Au 13.1033 24.8787 21.7635
Pd 27.8427 25.2911 22.0475
Au 17.8737 34.9291 17.6162
Au 17.1875 19.3668 27.1463
Au 19.2874 29.9265 14.6336
Au 18.492 16.0326 11.0781
Pd 17.9909 23.8667 11.9392
Au 25.1165 5.87519 22.0962
Au 9.55814 17.4629 18.7078
Pd 15.0486 9.69711 16.0083
Pd 21.0449 22.7535 33.1155
Pd 29.3022 15.789 24.8315
Au 24.6887 21.4524 13.698
Au 28.3895 20.6672 30.4014
Au 14.5507 21.7728 6.57578
Au 11.6609 20.4633 31.2465
Pd 26.354 16.625 29.5977
Pd 16.3809 23.6568 25.299
Au 13.2195 18.0283 17.4866
Au 15.3339 8.91385 24.3044
Au 17.3963 34.2083 25.8022
Au 27.3736 23.1392 29.6787
Au 31.1482 15.932 20.1898
Pd 14.3265 10.1335 26.5678
Au 23.9107 18.0618 25.6121
Pd 13.1293 24.2422 16.0377
Au 21.7218 12.0632 8.08372
Au 26.3956 20.7997 9.98075
Au 12.0667 31.9953 21.1326
Au 15.2636 24.7915 6.76655
Au 28.9039 25.1699 28.5416
Au 20.1822 18.0639 6.87593
Au 22.572 19.3551 6.2075
Pd 12.091 18.2701 25.8494
Au 21.0066 12.9135 17.211
Au 14.7603 18.7873 25.3994
Pd 32.509 25.9616 20.3299
Pd 25.9929 11.3528 18.7904
Au 20.259 27.1378 30.8567
Pd 15.3884 31.0569 23.956
Au 32.8851 12.5062 19.7926
Au 23.2514 29.6587 29.4192
Au 25.1008 18.92 32.4499
Au 17.7691 12.5216 14.3267
Au 22.762 18.2672 9.63184
Au 20.5563 10.5409 24.2179
Pd 28.4343 29.4411 19.2077
Au 12.2174 15.398 21.5423
Au 9.6012 15.5538 13.4203
Au 17.3998 9.81612 14.3867
Au 8.09583 11.9892 23.4611
Au 19.8815 17.8823 12.5308
Au 17.843 16.8049 18.1329
Au 17.7268 22.1277 21.4899
Au 12.7489 23.876 10.4274
Pd 21.2256 20.279 19.0509
Au 14.1563 7.61719 17.3787
Au 16.4815 30.0782 29.9906
Au 8.81176 18.8344 16.4428
Au 9.25227 20.447 29.514
Au 28.9495 8.66713 15.6146
Au 17.4098 9.22623 11.731
Pd 14.2797 20.3928 16.124
Au 26.6545 20.8396 22.9003
Au 19.5317 26.6517 10.8559
Au 10.5461 28.2023 18.0556
Au 25.5032 29.0819 15.8293
Au 26.5382 27.2361 25.8517
Au 23.4026 28.9147 9.97001
Au 24.3389 16.7212 23.3451
Au 28.3886 15.0339 7.99109
Au 29.8331 19.1582 18.6537
Au 31.6381 21.1483 15.0518
Au 17.8169 8.69701 16.7555
Pd 8.97904 18.5314 22.6355
Pd 21.2587 15.9349 10.9084
Au 17.922 25.2292 6.61813
Au 21.6619 16.0877 8.30542
Au 19.2788 27.0836 8.1883
Pd 24.9619 22.7498 16.0003
Au 16.051 15.9378 8.098
Au 32.3862 23.2499 16.6049
Au 28.2739 13.3871 28.6744
Pd 22.8825 20.597 21.2532
Pd 30.1237 11.5104 27.722
Au 23.812 16.3324 14.5915
Au 31.2268 17.9307 25.2962
Au 12.055 27.0196 29.3738
Pd 31.0449 10.5253 20.3424
Pd 17.816 23.7862 14.8473
Au 20.4198 12.2617 30.675
Au 32.3256 17.9333 18.682
Au 24.6995 8.7823 23.261
Au 6.38309 24.9045 21.6988
Au 31.0553 17.1639 29.8453
Pd 11.1503 25.5692 14.2894
Au 22.2747 7.54526 12.8777
Pd 11.0953 27.4465 22.5117
Au 19.2775 22.0955 19.2082
Au 24.1818 24.0912 13.6864
Pd 26.2665 11.3979 12.847
Au 30.1171 16.6346 10.0996
Au 16.2804 14.6444 30.9385
Au 14.361 20.4755 31.6264
Au 27.3032 9.291 25.5546
Pd 24.8929 26.1706 12.1414
Au 14.0062 33.6244 17.1333
Pd 25.3833 13.928 19.1254
Au 22.948 32.4936 15.6768
Pd 13.6905 15.5872 16.0501
Pd 25.452 24.8445 25.2525
Pd 27.3461 9.37361 17.7387
Au 10.1783 19.3275 9.33886
Au 24.23 27.4721 18.2707
Au 12.1548 19.3807 13.2892
Pd 25.5031 10.8335 21.5898
Au 7.34176 20.6769 21.6053
Au 18.6641 20.1301 29.3573
Pd 27.8343 27.5183 15.0498
Pd 26.2031 18.1824 27.219
Au 21.1684 7.66955 22.5327
Au 27.5087 26.5927 12.4354
Pd 11.8823 26.5722 19.9893
Au 12.8349 13.811 17.8505
Au 15.5608 11.9574 30.2748
Au 16.083 22.2821 32.5568
Au 11.1939 25.8818 11.5543
Pd 15.0479 15.9185 13.4925
Au 22.1791 11.399 26.4487
Pd 6.95671 14.919 14.3879
Au 19.6722 14.7829 30.272
Au 31.8669 22.3063 24.2723
Au 10.0554 20.7655 21.2188
Pd 23.6718 20.4946 30.538
Au 22.6702 24.4981 24.9131
Au 23.3719 30.2149 17.1281
Au 12.7516 20.886 26.2094
Au 26.553 25.1852 10.2084
Au 33.4283 15.0982 19.0569
Au 27.3241 23.3117 23.981
Au 24.2052 6.1131 16.3716
Pd 14.059 18.0284 14.8847
Au 13.5224 15.0735 8.67855
Au 11.5196 22.8709 27.5156
Au 34.5682 14.8992 26.1771
Au 31.9432 20.7949 17.8174
Au 23.5493 11.5515 23.7558
Pd 22.507 28.9891 26.9289
Au 32.0441 15.3405 25.4742
Pd 30.4583 22.5822 13.0013
Pd 23.9484 20.5086 11.2324
Pd 26.4074 18.1533 21.7204
Pd 14.9958 31.1761 16.5362
Au 16.6096 18.0541 29.4435
Pd 21.254 19.9944 11.1813
Au 21.4943 17.8238 14.7731
Au 14.3066 18.9115 28.0279
Pd 22.0172 29.9868 14.6596
Au 22.5234 24.7097 22.2419
Au 22.6896 14.6554 26.7777
Au 31.6474 11.252 17.7219
Au 33.0826 25.4369 17.83
Au 12.0043 22.4186 22.6493
Au 25.8578 25.5055 19.9887
Au 31.4379 15.5523 12.1857
Pd 16.8526 17.8225 12.4085
Pd 6.41265 15.8804 21.8251
Au 32.863 26.5414 22.8424
Au 28.0821 13.3735 23.2542
Au 18.5261 20.1994 8.38168
Au 20.458 12.9725 14.4439
Au 18.9686 22.9828 5.59514
Au 27.9538 29.8557 16.5111
Pd 21.4327 12.8346 11.844
Au 31.1948 18.6731 21.1703
Pd 10.0192 20.4765 26.6375
Au 26.9071 29.9619 23.6657
Au 5.56117 19.9901 19.4707
Au 29.4786 29.3696 24.5074
Au 9.68633 27.7119 13.354
Au 13.76 13.8278 30.5215
Au 31.3475 11.9846 15.0665
Au 18.7631 25.6758 16.8297
Au 15.5434 35.2985 18.7664
Pd 24.0773 22.9595 26.6627
Au 17.3961 18.0886 7.05824
Au 19.4418 32.6239 27.1423
Au 16.7359 18.8474 14.8135
Pd 12.012 17.1414 28.2722
Pd 28.6986 14.5649 19.4305
Au 15.866 28.1276 27.5087
Pd 21.3022 14.3134 20.5544
Au 7.71479 22.6844 25.6405
Au 22.6985 22.9846 30.8991
Au 20.4479 20.0966 27.2232
Pd 11.6492 9.9025 21.5083
Au 8.01041 23.161 20.2187
Pd 21.5432 33.6592 17.6447
Au 15.1707 32.678 26.1325
Au 26.9077 15.9037 23.6122
Au 26.911 8.7728 13.1802
Au 19.0677 24.4156 26.2501
Au 27.6755 7.19646 26.8591
Au 30.8557 14.2964 29.0156
Pd 22.7912 17.6929 12.2701
Pd 14.513 17.8479 9.30368
Pd 10.8797 15.7012 26.1867
Au 11.587 28.6997 24.8658
Pd 8.7824 28.5437 15.813
Au 18.9517 10.4756 28.9486
Au 29.4701 22.1364 22.7109
Au 17.8811 11.5395 10.508
Pd 32.8296 14.338 21.8197
Au 19.9656 34.6562 21.9873
Pd 13.1225 28.173 27.1358
Au 30.5445 18.1326 12.4384
Au 20.6924 6.37132 14.7156
Pd 22.1944 27.0314 28.8654
Au 28.6129 18.1535 26.0655
Au 10.7414 22.6576 30.1522
Pd 25.2055 26.6332 14.7775
Au 20.9808 18.6652 21.2502
Pd 16.7705 11.5098 16.7748
Au 23.9793 26.5445 26.8675
Au 10.9995 30.0206 27.0664
Au 13.2832 30.7406 25.7636
Pd 25.9812 8.21366 20.7958
Au 22.1321 29.4056 24.2904
Au 29.5591 22.725 25.7395
Au 20.2657 28.9438 28.6951
Au 13.2998 23.5309 24.9579
Au 14.4951 13.1105 23.1787
Au 13.844 13.3077 10.7063
Pd 20.5642 15.4292 13.4311
Au 23.2142 11.2272 10.4022
Au 8.52081 19.2717 11.663
Au 20.5938 24.5227 15.1373
Au 24.4656 9.7456 14.2909
Au 25.8625 8.99171 28.1443
Pd 20.5741 31.4859 16.491
Au 24.0682 24.4863 29.0926
Au 19.3373 30.6475 11.8846
Au 13.4045 11.8255 28.591
Au 29.9989 13.3637 13.0654
Pd 24.351 11.3361 28.2809
Au 14.9071 15.8522 21.5671
Pd 6.77069 17.7068 17.9504
Au 23.9857 31.1879 26.8596
Au 26.6803 11.4111 29.7342
Pd 17.4866 23.4405 17.6259
Au 30.3472 26.3534 21.8666
Au 17.6607 34.2248 20.4099
Au 15.3932 13.8227 28.1478
Au 28.0146 21.3938 18.9588
Au 11.1049 16.8252 16.2251
Au 20.0465 30.0378 26.1267
Pd 16.288 29.8275 18.4294
Au 13.1141 22.6395 20.0278
Pd 21.8349 22.828 20.1827
Pd 22.4088 5.2063 21.848
Pd 19.0012 22.748 23.9471
Pd 22.8533 14.7479 18.2128
Au 26.7805 20.2679 15.2625
Pd 8.5203 23.8045 14.6902
Au 15.1989 8.78207 13.1268
Au 18.813 12.9222 21.0972
Au 23.8454 5.43284 19.3274
Au 24.1648 20.1919 8.44355
Au 18.4762 19.9132 11.3407
Au 23.1598 14.8155 12.4762
Pd 25.2244 24.8807 22.6161
Au 10.6913 11.9568 16.9162
Au 23.4216 24.7621 19.0019
Pd 24.3431 19.7674 23.3568
Au 27.1109 16.0886 10.0503
Pd 18.905 13.5641 12.0672
Pd 27.4954 22.8349 16.5918
Au 15.4628 24.3614 9.46
Au 15.4111 21.3364 26.4886
Au 13.5986 17.857 20.3055
Au 12.8819 30.1093 22.9454
Au 10.5442 20.9566 11.5283
Pd 17.9511 22.4219 30.6443
Au 18.2397 24.6902 9.28563
Au 12.3809 27.9355 12.8261
Au 21.4954 26.4208 17.6074
Au 28.2296 18.5373 10.8489
Au 30.5411 25.5731 18.5908
Au 29.1943 15.388 22.0467
Au 11.9298 17.3017 8.94467
Au 29.9014 23.9227 20.7089
Au 24.4251 29.3492 22.4392
Au 13.2312 18.3214 30.5152
Au 18.3443 23.9471 32.9342
Au 16.5665 6.46855 17.9765
Au 11.5003 21.7217 8.99978
Au 15.4267 16.4507 24.1479
Au 9.66086 24.6829 26.2098
Au 23.1649 24.4164 7.72061
Au 18.2191 15.6071 24.9623
Pd 22.9137 7.7507 18.2158
Au 9.54071 11.507 21.2222
Au 21.6952 5.46834 17.0997
Pd 26.4244 18.4239 24.4756
Au 11.5566 14.1843 15.1974
Pd 16.8769 14.2499 22.7665
Au 19.9517 18.0796 9.69118
Au 19.5494 22.1045 16.2982
Pd 20.8672 23.8593 17.8651
Pd 19.431 16.5509 20.6353
Au 17.8131 32.1104 13.8199
Au 20.588 24.9427 6.82388
Au 19.6961 5.08898 21.4347
Au 11.2045 13.1562 24.9637
Au 10.3591 9.97913 18.9365
Pd 10.072 14.5103 17.4488
Au 25.5198 14.8819 8.13471
Pd 32.161 23.9362 22.1393
Au 12.2109 16.4154 13.6763
Pd 30.2983 16.4196 27.4275
Au 17.1549 14.8938 20.0485
Au 28.6454 18.1778 28.8746
Pd 23.9406 32.4149 18.5353
Au 23.8404 19.4691 27.9697
Au 23.672 26.8821 24.0464
Au 23.3761 7.60928 20.9874
Au 16.3416 18.171 20.0879
Au 21.5035 27.4326 22.4214
Au 7.91901 16.2376 24.0125
Au 17.9193 4.99452 23.3549
Pd 14.2719 21.8281 9.35131
Au 30.6802 19.9216 29.3704
Pd 11.9126 16.1165 18.9247
Au 27.9539 9.99486 20.2733
Pd 18.1256 28.5498 16.8204
Au 28.3917 18.2331 16.3902
Au 17.0313 9.07891 26.5968
Au 27.2586 16.1067 17.8993
Au 11.498 19.5972 16.0208
Au 26.3785 7.71497 15.7182
Au 15.3761 17.1863 31.663
Au 21.951 27.0116 8.30733
Au 24.3887 12.3831 30.8202
Au 18.8586 12.0886 8.03623
Pd 30.1174 22.9374 18.0425
Au 17.3866 24.5582 22.6656
Au 11.1875 13.659 12.3817
Au 21.224 6.2328 19.6693
Au 19.4173 28.2162 24.0458
Pd 17.6466 30.0875 22.7863
Pd 19.6092 22.6481 8.13411
Au 18.8528 15.9367 8.25261
Au 22.4218 22.4185 12.2845
Pd 17.0583 25.6345 27.6195
Au 29.6524 27.8509 17.3
Pd 26.0332 30.2028 18.3454
Au 26.1082 21.2531 31.6242
Au 19.6953 33.7086 24.5493
Au 31.4736 16.4905 22.9655
Au 18.8656 11.0416 26.3208
Au 22.5192 22.2718 9.37458
Au 17.4463 14.0409 6.71253
Au 24.9496 26.2656 32.3128
Au 16.1315 11.5433 25.1527
Au 24.6178 14.131 32.7827
Au 8.6558 12.2683 18.7872
Au 13.7182 29.545 14.6995
Au 23.7011 28.4977 12.9165
Au 16.5272 11.8374 19.7641
Au 25.2776 28.9881 27.7952
Au 18.2912 21.6218 26.2694
Au 10.7751 24.7163 23.5627
Pd 25.525 13.9258 28.2772
Au 25.9557 10.8453 10.2712
Au 19.6196 17.569 23.4183
Pd 17.2287 31.392 20.4759
Au 10.6462 23.9828 20.7975
Au 34.0968 15.9451 23.6482
Au 16.6714 26.6131 18.3641
Au 20.5436 9.11565 27.168
Pd 9.16154 13.2853 14.6863
Au 21.2219 20.2427 8.34133
Au 21.301 26.8085 25.9111
Pd 14.077 17.9232 12.0316
Au 9.81583 18.1664 14.0178
Au 7.7388 30.0421 20.9006
Au 27.4343 27.5805 28.5544
Pd 22.7734 13.9301 9.66418
Pd 30.4969 13.211 20.9779
Au 9.2665 18.1813 28.0305
Au 8.88425 25.8115 21.9021
Au 32.9017 15.8888 28.0769
Au 20.5887 5.51516 24.0102
Au 30.0346 16.5135 14.7791
Au 13.032 23.7345 7.75773
Pd 19.2996 27.3662 19.0182
Pd 11.1471 19.909 23.8001
Pd 13.0606 21.6967 11.9236
Au 15.3146 28.0383 12.8795
