923
Atoms. Timestep: 20067
Au 19.7517 19.778 19.7656
Au 22.0543 19.7915 18.3482
Au 22.0444 19.7835 21.193
Au 17.4641 19.7644 18.3325
Au 17.4546 19.7657 21.1798
Au 18.3355 22.0765 19.758
Au 21.1796 22.0694 19.7548
Au 18.327 17.4797 19.7636
Au 21.172 17.4892 19.7681
Au 19.7505 18.361 22.0718
Au 19.7425 21.1891 22.0661
Au 19.7445 18.361 17.4699
Au 19.7626 21.1968 17.4699
Pd 24.3412 19.7865 16.9408
Au 24.4076 19.7975 19.7596
Au 24.329 19.7904 22.6339
Pd 15.1907 19.7565 16.9123
Au 15.1019 19.7584 19.7425
Au 15.1578 19.7517 22.6019
Pd 16.9204 24.3692 19.7551
Au 19.7584 24.4478 19.7541
Au 22.5968 24.3595 19.7405
Pd 16.912 15.1948 19.7615
Au 19.7403 15.1167 19.768
Au 22.5954 15.1911 19.773
Au 19.7531 16.953 24.3846
Au 19.7444 19.768 24.4607
Au 19.743 22.5893 24.3705
Au 19.742 16.9532 15.1675
Au 19.7595 19.7663 15.0995
Au 19.7767 22.608 15.1721
Au 22.0841 18.3454 23.5708
Au 22.0787 21.203 23.5641
Au 22.0896 18.348 15.9996
Au 22.1085 21.2282 16.0033
Au 17.4158 18.3237 23.5519
Au 17.4094 21.1995 23.5519
Pd 17.4318 18.3185 15.9964
Au 17.4342 21.1926 15.9904
Pd 23.5249 22.1099 18.3182
Au 23.5292 22.1119 21.202
Au 15.9946 22.1028 18.3075
Au 15.9857 22.1119 21.2001
Au 23.5356 17.4665 18.3174
Au 23.5284 17.4529 21.2283
Au 15.9982 17.4339 18.2988
Au 15.978 17.4129 21.2107
Au 18.3031 23.5587 22.0885
Au 21.1914 23.5426 22.0867
Au 18.2946 16.0094 22.0997
Au 21.1969 16.0064 22.118
Au 18.3268 23.5607 17.4253
Au 21.2232 23.5525 17.4312
Au 18.3016 16.0117 17.425
Au 21.1965 16.0081 17.4297
Au 26.6396 19.7681 15.5344
Au 26.7422 19.773 18.336
Au 26.7355 19.7833 21.2107
Au 26.6126 19.7805 24.0528
Au 12.8913 19.7517 15.4826
Au 12.7721 19.7556 18.3148
Au 12.7593 19.7455 21.1914
Pd 12.8607 19.7474 24.0165
Au 15.4892 26.6686 19.7687
Au 18.34 26.7763 19.7568
Pd 21.1912 26.767 19.747
Au 24.0105 26.6469 19.7346
Au 15.5007 12.895 19.7609
Au 18.3195 12.7771 19.7638
Au 21.1805 12.7695 19.7598
Au 24.0223 12.8871 19.7734
Pd 19.7492 15.5468 26.6779
Pd 19.7414 18.347 26.773
Pd 19.7425 21.1724 26.7706
Au 19.7548 24.0059 26.6647
Pd 19.7694 15.5362 12.8903
Pd 19.7763 18.3337 12.7834
Pd 19.7861 21.1876 12.7807
Au 19.7931 24.0178 12.8622
Pd 24.3838 18.335 25.0099
Au 22.0845 16.914 25.8972
Pd 24.3764 21.2123 25.0123
Pd 22.0886 19.7687 25.9597
Au 22.0957 22.6155 25.892
Au 24.4036 18.3215 14.565
Au 22.0972 16.9059 13.6683
Au 24.4031 21.2307 14.5554
Au 22.1014 19.7742 13.5748
Au 22.1213 22.6366 13.6498
Au 15.0947 18.3041 24.9835
Au 17.4169 16.9024 25.8842
Au 15.0778 21.203 24.9914
Pd 17.3944 19.756 25.9546
Au 17.3912 22.626 25.8792
Au 15.1511 18.2894 14.5471
Pd 17.4315 16.8952 13.682
Au 15.1255 21.2061 14.538
Au 17.4347 19.7297 13.5961
Au 17.4436 22.6383 13.66
Au 24.9667 24.4249 18.2972
Au 25.8367 22.1301 16.8975
Pd 24.9602 24.4219 21.2045
Au 25.9186 22.1542 19.7699
Pd 25.8345 22.1194 22.6548
Au 14.5401 24.4332 18.3005
Au 13.6719 22.1104 16.8579
Au 14.5347 24.4371 21.2121
Au 13.5749 22.1334 19.7544
Au 13.6537 22.108 22.6562
Au 24.9815 15.1322 18.3064
Pd 25.8524 17.437 16.8907
Au 24.9849 15.1262 21.2632
Au 25.9339 17.4183 19.7704
Au 25.8459 17.4213 22.6909
Au 14.5568 15.1141 18.2996
Au 13.6848 17.4104 16.8652
Pd 14.5375 15.1127 21.2202
Au 13.5848 17.3795 19.7663
Au 13.6538 17.3951 22.6609
Au 18.2898 25.0009 24.4197
Au 16.8662 25.891 22.1036
Au 21.191 24.9897 24.4127
Au 19.7579 25.9829 22.1183
Au 22.6145 25.8768 22.0811
Au 18.2962 14.5778 24.4349
Au 16.8567 13.6993 22.1125
Au 21.2087 14.5593 24.4565
Au 19.7507 13.5912 22.1433
Au 22.6466 13.6758 22.1552
Pd 18.3368 24.9933 15.0945
Au 16.898 25.8808 17.4041
Au 21.231 24.9896 15.1135
Au 19.79 25.9693 17.394
Pd 22.6366 25.8757 17.4148
Au 18.3158 14.5735 15.0916
Au 16.8787 13.6898 17.4041
Au 21.2235 14.5632 15.1004
Au 19.7615 13.5884 17.395
Au 22.6362 13.6658 17.4009
Au 23.5869 15.9611 23.6336
Au 23.5772 23.5685 23.5889
Au 23.5877 15.9489 15.9437
Pd 23.5795 23.5972 15.9527
Pd 15.9193 15.9584 23.5954
Au 15.9153 23.5957 23.6063
Pd 15.9587 15.9499 15.9329
Au 15.9515 23.5997 15.921
Au 28.9499 19.7449 14.1104
Pd 29.0859 19.7533 16.9229
Au 29.1191 19.7508 19.7695
Au 29.0839 19.754 22.6253
Au 28.9413 19.7564 25.456
Pd 10.588 19.7472 14.0457
Au 10.4314 19.7497 16.8806
Au 10.3897 19.7376 19.7549
Au 10.4273 19.7386 22.6185
Au 10.5619 19.7475 25.411
Au 14.056 28.9721 19.77
Au 16.8993 29.1143 19.7731
Au 19.7797 29.1341 19.7575
Au 22.6091 29.0845 19.7534
Au 25.4409 28.9463 19.7474
Au 14.0935 10.5602 19.7524
Au 16.9193 10.4166 19.7505
Au 19.7626 10.3914 19.7428
Au 22.6127 10.4297 19.7495
Au 25.457 10.5859 19.7569
Au 19.73 14.1251 28.9598
Pd 19.7384 16.9214 29.0799
Au 19.74 19.7525 29.1193
Au 19.7602 22.6029 29.0917
Au 19.7617 25.4349 28.9646
Au 19.7935 14.122 10.6051
Pd 19.7949 16.9126 10.4832
Au 19.8101 19.7439 10.4552
Au 19.819 22.6032 10.4583
Pd 19.786 25.4273 10.5546
Au 26.6943 18.2889 26.4371
Au 24.4246 16.8611 27.3376
Pd 22.0886 15.4718 28.1976
Au 26.6772 21.2277 26.4568
Au 24.4212 19.7778 27.4299
Au 22.1019 18.3318 28.3093
Pd 24.4029 22.6562 27.3525
Au 22.1236 21.2113 28.3067
Pd 22.1097 24.0657 28.1962
Au 26.7133 18.2828 13.1218
Pd 24.4247 16.8638 12.2224
Au 22.1272 15.4822 11.3765
Au 26.7203 21.2208 13.1057
Au 24.4381 19.7588 12.1119
Pd 22.144 18.3177 11.241
Pd 24.4377 22.6541 12.184
Pd 22.148 21.2036 11.2285
Pd 22.1355 24.06 11.34
Au 12.7727 18.3067 26.3997
Au 15.0732 16.8671 27.3321
Pd 17.4028 15.4776 28.1882
Pd 12.7612 21.2002 26.4051
Au 15.0324 19.7683 27.4187
Au 17.3812 18.3178 28.3121
Au 15.0364 22.6591 27.3211
Au 17.3582 21.1888 28.316
Au 17.3768 24.077 28.1948
Au 12.8203 18.2901 13.0904
Pd 15.1181 16.8603 12.195
Au 17.4499 15.4704 11.3774
Au 12.8041 21.2055 13.0788
Au 15.0902 19.7342 12.1016
Au 17.4279 18.2973 11.24
Au 15.0971 22.6522 12.1755
Au 17.4255 21.174 11.2237
Au 17.4377 24.0662 11.3183
Pd 26.421 26.7357 18.2953
Pd 27.3284 24.4638 16.8754
Au 28.1901 22.1257 15.4778
Au 26.4104 26.7342 21.2106
Au 27.405 24.4823 19.7547
Au 28.3077 22.1462 18.3252
Au 27.3095 24.4452 22.6576
Au 28.299 22.162 21.2132
Au 28.1642 22.1324 24.0879
Au 13.0653 26.7546 18.2979
Au 12.1759 24.4502 16.8248
Au 11.3405 22.1076 15.415
Pd 13.0792 26.7432 21.2209
Au 12.0686 24.4895 19.7601
Au 11.1917 22.1433 18.3009
Au 12.1824 24.4455 22.674
Au 11.1849 22.1352 21.2032
Au 11.3356 22.1003 24.0808
Au 26.4312 12.804 18.3057
Au 27.3331 15.0876 16.8727
Au 28.1782 17.4073 15.4699
Au 26.4348 12.8215 21.2599
Au 27.4252 15.0654 19.7959
Au 28.3078 17.3918 18.3346
Pd 27.3273 15.0887 22.6954
Au 28.2985 17.3647 21.2309
Au 28.1701 17.3839 24.0868
Au 13.1033 12.7825 18.2766
Au 12.1999 15.0644 16.839
Au 11.3406 17.3975 15.4245
Au 13.0971 12.7899 21.2266
Au 12.092 15.0383 19.7632
Au 11.1953 17.3685 18.3191
Au 12.178 15.0828 22.6661
Au 11.1913 17.3608 21.2106
Pd 11.3276 17.4094 24.0673
Au 18.2877 26.4438 26.7298
Au 16.8474 27.3596 24.4447
Pd 15.423 28.2086 22.1258
Au 21.2069 26.4337 26.7335
Pd 19.7436 27.4507 24.4654
Au 18.317 28.3412 22.1549
Au 22.6171 27.3532 24.4238
Pd 21.1888 28.3396 22.1287
Au 24.047 28.1946 22.1027
Au 18.2839 13.147 26.7495
Au 16.8639 12.2039 24.4547
Au 15.4508 11.342 22.1286
Au 21.2025 13.1275 26.7657
Au 19.7638 12.0989 24.4949
Au 18.32 11.2003 22.1546
Pd 22.6601 12.1968 24.4799
Au 21.2093 11.2064 22.1616
Au 24.084 11.3565 22.1562
Au 18.3338 26.4221 12.7669
Au 16.888 27.3426 15.0478
Au 15.4441 28.2115 17.3865
Au 21.2365 26.4156 12.7714
Au 19.7866 27.4439 15.0467
Au 18.3485 28.3471 17.3654
Au 22.6585 27.3411 15.086
Pd 21.2188 28.3286 17.3839
Au 24.0654 28.1879 17.3923
Pd 18.3366 13.1226 12.7878
Au 16.8832 12.2082 15.0632
Au 15.4751 11.3406 17.3829
Au 21.2432 13.1376 12.8026
Au 19.7908 12.1079 15.0553
Au 18.3451 11.2061 17.3748
Pd 22.6714 12.2118 15.0779
Pd 21.213 11.214 17.3725
Au 24.0678 11.3539 17.3877
Pd 25.9232 15.9129 25.0635
Au 25.9035 23.5961 25.0734
Pd 25.0546 13.6094 23.6505
Au 25.0238 25.9376 23.6142
Au 23.6162 14.4838 25.957
Au 23.5922 25.028 25.9615
Au 25.9165 15.9073 14.4887
Au 25.928 23.626 14.488
Pd 25.0375 13.5941 15.914
Au 25.0402 25.9399 15.9271
Pd 23.61 14.4958 13.6029
Au 23.6185 25.0395 13.5858
Pd 13.5619 15.9143 25.0522
Pd 13.5629 23.6082 25.0572
Au 14.4566 13.6133 23.621
Au 14.4498 25.9447 23.6213
Au 15.8911 14.5023 25.9448
Pd 15.8852 25.059 25.946
Au 13.6259 15.9031 14.4579
Pd 13.59 23.6124 14.4438
Pd 14.491 13.5964 15.8972
Au 14.4608 25.9508 15.8732
Au 15.9407 14.4953 13.5976
Au 15.9322 25.0601 13.5654
Au 31.2524 19.7159 12.6847
Pd 31.3766 19.7358 15.4814
Au 31.4629 19.727 18.3358
Au 31.4864 19.7123 21.1993
Au 31.4349 19.7489 24.0418
Au 31.2595 19.7446 26.8686
Au 8.31315 19.7455 12.6008
Au 8.12592 19.7347 15.4305
Pd 8.07845 19.7355 18.319
Pd 8.07205 19.7389 21.1798
Pd 8.12526 19.745 24.0241
Pd 8.27272 19.7586 26.7914
Au 12.6247 31.286 19.7466
Au 15.4613 31.4643 19.7541
Au 18.341 31.5156 19.7527
Au 21.2218 31.489 19.7648
Pd 24.0738 31.3798 19.7719
Pd 26.8513 31.2231 19.7666
Pd 12.6934 8.27725 19.7384
Au 15.4947 8.08113 19.7424
Pd 18.34 8.05026 19.7362
Au 21.1814 8.04258 19.7397
Au 24.0607 8.10516 19.7452
Au 26.8812 8.28495 19.7358
Au 19.7087 12.6705 31.2585
Au 19.703 15.4926 31.4132
Au 19.7189 18.322 31.4792
Au 19.754 21.2 31.492
Au 19.7615 24.0427 31.4326
Pd 19.7676 26.839 31.2452
Pd 19.8041 12.7108 8.3196
Au 19.8005 15.4922 8.15853
Pd 19.795 18.324 8.13918
Au 19.788 21.1639 8.08945
Au 19.803 24.0154 8.11273
Au 19.7793 26.8376 8.25773
Au 29.0358 18.2923 27.8817
Au 26.7736 16.8308 28.813
Au 24.4435 15.4154 29.6889
Au 22.0918 14.025 30.5069
Au 29.03 21.2246 27.8815
Au 26.7784 19.7812 28.9407
Au 24.483 18.3303 29.8543
Au 22.1137 16.8935 30.6722
Au 26.7084 22.6959 28.8127
Pd 24.4637 21.2438 29.8134
Au 22.1507 19.7906 30.7238
Pd 24.4121 24.0812 29.6648
Pd 22.1378 22.652 30.6391
Au 22.1257 25.4965 30.5119
Au 29.0401 18.2571 11.6934
Pd 26.733 16.835 10.7933
Pd 24.4386 15.4369 9.91885
Pd 22.1409 14.0579 9.07387
Au 29.0626 21.193 11.668
Au 26.7977 19.72 10.6393
Au 24.5057 18.2812 9.74913
Au 22.1623 16.8907 8.8968
Au 26.7735 22.6505 10.7292
Au 24.4851 21.2005 9.71967
Au 22.1686 19.7517 8.85602
Au 24.4592 24.0724 9.84032
Pd 22.1693 22.6266 8.89003
Au 22.1374 25.4737 9.02776
Au 10.4456 18.3072 27.8244
Au 12.732 16.8656 28.7897
Pd 15.0692 15.4347 29.6347
Au 17.3489 14.0361 30.4866
Au 10.438 21.1941 27.8153
Pd 12.6856 19.7625 28.8666
Au 14.9965 18.3186 29.8173
Pd 17.3501 16.8715 30.6359
Au 12.7153 22.6288 28.7651
Pd 14.9755 21.2079 29.8077
Au 17.3119 19.7465 30.737
Au 15.0247 24.0886 29.6832
Au 17.3251 22.6314 30.7056
Au 17.3845 25.526 30.5407
Pd 10.5215 18.2954 11.6493
Au 12.7971 16.8632 10.7321
Au 15.1294 15.4383 9.85719
Pd 17.4704 14.058 9.04873
Pd 10.5156 21.1686 11.6439
Au 12.758 19.7361 10.6016
Pd 15.072 18.3013 9.73587
Au 17.4252 16.888 8.8793
Au 12.7735 22.6259 10.699
Pd 15.0624 21.1799 9.7247
Au 17.3858 19.7339 8.82561
Au 15.0776 24.0718 9.81048
Au 17.3905 22.5974 8.847
Au 17.4143 25.4919 8.98772
Au 27.8611 29.0556 18.2986
Au 28.7815 26.7897 16.8721
Au 29.6882 24.4794 15.4463
Au 30.5384 22.104 14.0341
Au 27.8472 29.0826 21.2402
Au 28.8892 26.8088 19.7742
Au 29.8331 24.5046 18.3354
Au 30.7086 22.1271 16.8987
Au 28.787 26.788 22.6781
Pd 29.8124 24.5157 21.2265
Au 30.7377 22.1621 19.7762
Au 29.6765 24.472 24.1058
Au 30.689 22.1709 22.6478
Au 30.5223 22.1418 25.5353
Au 11.6036 29.0842 18.2767
Au 10.6804 26.778 16.8084
Pd 9.83921 24.4269 15.3816
Au 9.03068 22.0971 13.9663
Au 11.63 29.0491 21.2119
Au 10.5598 26.8232 19.7578
Au 9.64753 24.5022 18.2716
Au 8.81767 22.1349 16.8561
Au 10.7063 26.7491 22.6712
Au 9.64467 24.4921 21.2146
Au 8.76361 22.1208 19.7407
Pd 9.83856 24.4155 24.0833
Au 8.82478 22.1226 22.6376
Pd 9.01597 22.0809 25.4711
Pd 27.8585 10.4938 18.3114
Au 28.8134 12.7434 16.893
Au 29.6941 15.0683 15.4347
Pd 30.4859 17.3935 14.0366
Au 27.8801 10.505 21.2141
Pd 28.8753 12.7403 19.783
Au 29.8426 15.0316 18.3664
Au 30.6665 17.3764 16.9003
Au 28.8117 12.795 22.6731
Pd 29.7941 15.0345 21.2379
Pd 30.6909 17.3517 19.7992
Pd 29.6554 15.0816 24.0891
Pd 30.6386 17.3606 22.6425
Au 30.5096 17.377 25.4911
Au 11.6672 10.4351 18.2737
Au 10.7273 12.727 16.8218
Au 9.85254 15.0368 15.3822
Au 9.03973 17.3889 13.9585
Au 11.6578 10.4367 21.2166
Au 10.6005 12.6894 19.7489
Au 9.66744 15.0092 18.3098
Au 8.81607 17.3494 16.8684
Au 10.715 12.7376 22.6489
Pd 9.6857 15.0128 21.1955
Pd 8.79359 17.3608 19.7524
Au 9.81883 15.0916 24.0703
Au 8.8234 17.3663 22.6166
Pd 9.00953 17.4296 25.4661
Au 18.3037 27.8811 29.0661
Au 16.8394 28.8273 26.7826
Au 15.4096 29.7059 24.4676
Au 13.9785 30.5348 22.1359
Au 21.2154 27.8662 29.0654
Au 19.7603 28.9295 26.8056
Pd 18.2995 29.8297 24.5052
Au 16.8692 30.7136 22.1803
Au 22.6772 28.8093 26.7676
Au 21.1942 29.8492 24.5009
Au 19.7614 30.7534 22.1822
Pd 24.079 29.6558 24.4375
Au 22.6598 30.6902 22.1584
Pd 25.4875 30.4789 22.0954
Au 18.248 11.6812 29.0412
Pd 16.855 10.7769 26.7654
Au 15.4295 9.84485 24.4718
Au 14.0237 8.99943 22.1228
Au 21.181 11.6423 29.078
Au 19.7089 10.6156 26.8236
Pd 18.2936 9.7002 24.5228
Au 16.8952 8.80415 22.1629
Au 22.6399 10.7322 26.7929
Au 21.1969 9.67766 24.5176
Au 19.751 8.77509 22.1637
Au 24.0876 9.85162 24.4773
Au 22.6501 8.81945 22.1643
Au 25.5273 9.0124 22.1198
Au 18.3156 27.8553 10.4468
Pd 16.8816 28.7689 12.7118
Au 15.4316 29.6884 15.0023
Au 13.9912 30.5443 17.372
Pd 21.2255 27.8254 10.4563
Au 19.7947 28.9076 12.6856
Au 18.3387 29.8609 14.9704
Au 16.8828 30.7312 17.3288
Pd 22.6697 28.7634 12.7463
Pd 21.2467 29.8179 15.0106
Au 19.7972 30.7563 17.3288
Au 24.1143 29.6686 15.0368
Au 22.6558 30.6944 17.3586
Au 25.518 30.5207 17.4009
Au 18.3466 11.7085 10.4659
Au 16.8891 10.7533 12.7348
Au 15.4535 9.8325 15.0373
Au 14.0542 8.99995 17.3803
Au 21.2645 11.7156 10.4738
Au 19.7911 10.6424 12.7109
Au 18.3397 9.66984 15.026
Pd 16.9136 8.85187 17.3702
Au 22.6988 10.7812 12.7571
Au 21.2349 9.69161 15.0319
Pd 19.7682 8.81841 17.3727
Au 24.1173 9.87343 15.056
Au 22.6423 8.8547 17.36
Pd 25.5147 9.05223 17.4055
Au 28.263 15.8614 26.4957
Au 28.2604 23.6518 26.5554
Pd 27.4271 13.5745 25.0765
Au 27.4102 25.986 25.1177
Au 26.5294 11.2608 23.6666
Au 26.4871 28.3104 23.6487
Pd 25.9796 14.4436 27.4245
Pd 25.9389 25.0539 27.4451
Au 25.1045 12.1068 25.996
Au 25.0741 27.4274 26.0049
Au 23.6345 13.0151 28.3035
Au 23.6325 26.4962 28.3046
Pd 28.2637 15.8867 13.0426
Au 28.3055 23.654 13.0086
Au 27.4161 13.5443 14.4392
Au 27.4152 26.0063 14.4547
Au 26.5122 11.2547 15.8843
Pd 26.4897 28.279 15.91
Au 25.9474 14.4529 12.1239
Au 25.9867 25.0944 12.0873
Pd 25.0593 12.1471 13.5692
Pd 25.073 27.4238 13.5652
Pd 23.6227 13.0737 11.2832
Au 23.6426 26.5127 11.2373
Au 11.2017 15.8914 26.4851
Au 11.2095 23.6187 26.4843
Au 12.0643 13.5213 25.0881
Pd 12.0646 25.9651 25.074
Pd 13.014 11.2283 23.6272
Au 12.9746 28.2801 23.6258
Au 13.5244 14.423 27.4374
Au 13.494 25.0914 27.4202
Au 14.431 12.0855 25.9861
Au 14.3942 27.4312 25.9881
Pd 15.8895 13.0502 28.2743
Au 15.8503 26.5316 28.303
Pd 11.2757 15.9002 13.0004
Au 11.2506 23.6055 12.9748
Au 12.1253 13.5317 14.3858
Au 12.061 25.979 14.3673
Au 13.0398 11.2291 15.8468
Au 12.9776 28.3188 15.8274
Au 13.5792 14.4297 12.0777
Au 13.558 25.091 12.0511
Pd 14.4764 12.1104 13.5411
Au 14.4406 27.4433 13.4756
Au 15.936 13.0374 11.2479
Pd 15.9262 26.4899 11.209
Pd 33.4483 19.6975 11.3223
Au 33.6368 19.7075 14.0512
Pd 33.6545 19.71 16.8741
Au 33.7429 19.7036 19.76
Au 33.7427 19.7128 22.6459
Au 33.6763 19.7342 25.517
Au 33.4672 19.7368 28.2405
Au 6.09957 19.7421 11.2143
Au 5.89266 19.7333 13.96
Pd 5.87558 19.7332 16.8487
Au 5.81663 19.7595 19.7355
Au 5.82885 19.7604 22.6153
Au 5.86723 19.7566 25.453
Au 6.03984 19.7624 28.1594
Au 11.2455 33.4982 19.7464
Au 13.9801 33.7069 19.7499
Au 16.874 33.7717 19.7452
Au 19.7994 33.7765 19.7659
Pd 22.7045 33.6808 19.7856
Au 25.5218 33.6263 19.787
Au 28.2277 33.4501 19.7901
Au 11.33 6.04869 19.7259
Au 14.0332 5.8588 19.7261
Au 16.902 5.78766 19.7193
Au 19.7691 5.78032 19.7234
Pd 22.6576 5.8457 19.7334
Au 25.5218 5.86636 19.7408
Au 28.2537 6.07243 19.7362
Au 19.6924 11.2972 33.4732
Au 19.6987 14.0203 33.6653
Au 19.7208 16.8707 33.7396
Au 19.7451 19.7602 33.762
Au 19.7662 22.6563 33.7471
Au 19.7734 25.5172 33.6683
Au 19.7794 28.2191 33.4647
Au 19.8098 11.3341 6.08975
Au 19.8054 14.0512 5.90331
Pd 19.8022 16.8875 5.90559
Pd 19.7894 19.7248 5.87489
Au 19.7792 22.5858 5.81916
Au 19.7874 25.4508 5.851
Au 19.7883 28.1891 6.02451
Pd 31.3282 18.3372 29.2015
Au 29.0861 16.8786 30.1769
Au 26.7462 15.4167 31.1016
Au 24.3664 13.9891 31.9586
Pd 21.9871 12.6012 32.7469
Pd 31.3221 21.1706 29.1947
Au 29.1444 19.7636 30.2992
Au 26.8417 18.2945 31.2746
Au 24.4564 16.8339 32.1588
Pd 22.0513 15.416 32.921
Pd 29.0087 22.6414 30.134
Au 26.8009 21.2587 31.2602
Au 24.4851 19.8109 32.1942
Au 22.1015 18.3227 33.0443
Au 26.703 24.0983 31.0789
Au 24.4491 22.697 32.1138
Pd 22.1031 21.2472 32.9944
Au 24.3971 25.5077 31.9385
Pd 22.1048 24.1047 32.9112
Au 22.0616 26.9238 32.7742
Au 31.3294 18.289 10.3176
Pd 29.0164 16.8612 9.43267
Au 26.7249 15.437 8.5238
Au 24.4243 14.0231 7.64675
Au 22.1083 12.6348 6.8053
Au 31.3554 21.135 10.303
Pd 29.1315 19.7166 9.3104
Au 26.8347 18.2596 8.33107
Pd 24.4946 16.8237 7.48679
Au 22.1624 15.4397 6.60174
Pd 29.0676 22.5871 9.39524
Pd 26.8259 21.1868 8.35219
Pd 24.4921 19.7258 7.42942
Au 22.1388 18.3132 6.54817
Au 26.7577 24.0352 8.43492
Au 24.4934 22.6195 7.39971
Pd 22.1272 21.1874 6.57117
Au 24.4157 25.4733 7.55682
Au 22.1442 24.0422 6.56414
Pd 22.0651 26.8597 6.77066
Pd 8.16276 18.3628 29.147
Au 10.413 16.9002 30.1398
Au 12.7822 15.439 31.0485
Pd 15.0952 14.0229 31.8876
Au 17.3923 12.6048 32.7613
Au 8.13699 21.1667 29.1727
Au 10.3493 19.7597 30.2534
Au 12.6519 18.3041 31.227
Pd 15.0256 16.8387 32.059
Au 17.3378 15.4263 32.946
Pd 10.4233 22.5917 30.0899
Au 12.6372 21.2095 31.2104
Au 14.9573 19.7575 32.1776
Au 17.3426 18.2759 33.035
Pd 12.7388 24.0421 31.0242
Au 14.9693 22.6588 32.1383
Au 17.3704 21.2022 33.0743
Au 15.0851 25.5127 31.9571
Au 17.3888 24.1128 33.0054
Au 17.4741 26.9476 32.7993
Au 8.24109 18.314 10.2405
Au 10.5248 16.8938 9.33883
Pd 12.8605 15.4606 8.48247
Au 15.1911 14.0295 7.59362
Au 17.5154 12.6355 6.77989
Au 8.23586 21.1558 10.2398
Au 10.4431 19.7443 9.21014
Au 12.7671 18.2901 8.27724
Pd 15.1108 16.8593 7.45571
Au 17.4448 15.443 6.58612
Pd 10.5065 22.5614 9.36305
Pd 12.7559 21.1943 8.31181
Pd 15.0718 19.7373 7.41583
Pd 17.456 18.2954 6.56346
Au 12.7941 24.0259 8.41697
Pd 15.0739 22.6199 7.4308
Au 17.4157 21.1604 6.5031
Au 15.1336 25.4639 7.52853
Pd 17.4464 24.0568 6.59019
Au 17.4799 26.8863 6.70021
Au 29.2309 31.3572 18.3664
Au 30.1726 29.0817 16.9146
Au 31.0792 26.7703 15.4663
Au 31.9657 24.4005 14.0151
Au 32.7997 22.0211 12.6052
Au 29.2201 31.3664 21.208
Pd 30.2286 29.1416 19.7857
Pd 31.1905 26.8387 18.3148
Au 32.1552 24.4905 16.8731
Au 32.9974 22.0665 15.4325
Au 30.1513 29.0903 22.66
Au 31.2292 26.8539 21.2335
Au 32.1838 24.5096 19.7971
Au 33.0674 22.0764 18.3319
Pd 31.0449 26.7501 24.0813
Au 32.1357 24.5119 22.6853
Pd 33.0202 22.0784 21.2307
Au 31.9507 24.4261 25.5317
Au 32.9932 22.1169 24.1146
Au 32.7923 22.0594 26.9563
Au 10.2411 31.3894 18.3143
Au 9.30416 29.0859 16.8479
Au 8.41505 26.7121 15.3728
Au 7.57933 24.3698 13.9438
Au 6.77034 22.0412 12.5284
Pd 10.2937 31.3378 21.1592
Au 9.18279 29.1659 19.7491
Au 8.22319 26.8381 18.257
Au 7.35532 24.4658 16.7838
Pd 6.60212 22.0758 15.3495
Pd 9.36026 29.0309 22.6085
Au 8.22538 26.8275 21.2205
Pd 7.34032 24.4639 19.7327
Au 6.473 22.0889 18.2783
Au 8.41888 26.7037 24.0626
Au 7.34811 24.4453 22.6677
Pd 6.50989 22.08 21.1988
Au 7.56087 24.3566 25.4758
Pd 6.58654 22.0725 24.0848
Au 6.73589 22.0406 26.8725
Au 29.2503 8.20538 18.3407
Au 30.1805 10.4533 16.9262
Au 31.1006 12.7729 15.4752
Au 31.9581 15.1146 14.0231
Au 32.7612 17.4136 12.6293
Pd 29.2066 8.21716 21.1621
Pd 30.2366 10.4298 19.7591
Pd 31.199 12.699 18.3364
Au 32.1431 15.0407 16.8858
Pd 32.8955 17.4014 15.43
Au 30.18 10.4864 22.6111
Au 31.2235 12.7177 21.2099
Au 32.1655 15.0235 19.8143
Pd 32.9692 17.3827 18.3401
Au 31.0944 12.8091 24.0626
Pd 32.0649 15.0564 22.6771
Au 33.0103 17.3529 21.2344
Au 31.9406 15.1119 25.4932
Pd 32.9084 17.3909 24.0966
Au 32.7737 17.4394 26.9239
Au 10.3241 8.13209 18.3097
Pd 9.40656 10.4283 16.8612
Au 8.47018 12.7443 15.3853
Pd 7.62589 15.1144 13.9504
Au 6.78136 17.4305 12.5266
Au 10.3117 8.13251 21.1434
Au 9.2295 10.3382 19.7189
Pd 8.31995 12.6611 18.2492
Au 7.38142 14.9878 16.802
Au 6.55585 17.3766 15.3687
Au 9.34156 10.4325 22.5998
Au 8.26205 12.6744 21.1859
Au 7.3296 15.0104 19.7374
Au 6.47858 17.3927 18.2988
Pd 8.45635 12.7967 24.037
Au 7.36329 15.0269 22.6333
Au 6.46944 17.4069 21.1742
Au 7.5533 15.1451 25.4789
Au 6.53951 17.4141 24.0688
Au 6.73501 17.4754 26.8762
Pd 18.3659 29.191 31.351
Au 16.8973 30.1837 29.0978
Au 15.4216 31.1063 26.7688
Au 13.9735 31.9754 24.4207
Au 12.5463 32.8059 22.0649
Pd 21.1762 29.1826 31.3425
Au 19.7693 30.2935 29.1644
Pd 18.2904 31.2153 26.843
Au 16.8379 32.1545 24.5335
Au 15.3911 33.0129 22.1355
Pd 22.6335 30.1306 29.065
Au 21.2355 31.258 26.8587
Au 19.7433 32.1939 24.5423
Au 18.3069 33.085 22.1413
Au 24.1062 31.06 26.733
Au 22.7092 32.1342 24.5083
Au 21.2435 33.0634 22.1461
Pd 25.5026 31.8774 24.3624
Au 24.1378 32.9497 22.1256
Pd 26.9032 32.7047 22.0492
Pd 18.2946 10.3372 31.3212
Pd 16.8774 9.409 29.0332
Pd 15.4498 8.51415 26.7464
Au 14.0114 7.57092 24.4066
Pd 12.6223 6.76709 22.0113
Au 21.1277 10.277 31.3795
Au 19.7075 9.22246 29.1565
Au 18.2545 8.29429 26.8521
Au 16.8437 7.37781 24.5222
Au 15.4247 6.51446 22.1002
Au 22.5971 9.3406 29.0885
Pd 21.1843 8.31989 26.8491
Au 19.7428 7.33438 24.5165
Au 18.3268 6.44592 22.0965
Pd 24.0379 8.47282 26.7373
Au 22.664 7.37612 24.502
Pd 21.2148 6.50022 22.0811
Pd 25.4997 7.60219 24.3792
Au 24.1107 6.53295 22.1067
Au 26.942 6.74336 22.0492
Au 18.3542 29.2084 8.12646
Au 16.8916 30.1432 10.4046
Au 15.446 31.0468 12.7017
Pd 14.0007 31.926 15.087
Au 12.5557 32.8107 17.4303
Au 21.2102 29.1928 8.14871
Au 19.7924 30.2734 10.3354
Au 18.2966 31.2399 12.6133
Au 16.8367 32.1616 14.9614
Au 15.3938 33.0159 17.3656
Au 22.6545 30.1147 10.4392
Au 21.2657 31.2269 12.6572
Au 19.8037 32.1986 14.9726
Au 18.3279 33.0886 17.3687
Au 24.1102 31.0413 12.7397
Au 22.7033 32.1382 15.0033
Au 21.2527 33.078 17.3954
Au 25.5509 31.937 15.0984
Au 24.1328 32.9821 17.4233
Au 26.9498 32.7812 17.4819
Au 18.3865 10.343 8.17475
Pd 16.9514 9.43513 10.4476
Au 15.4781 8.46283 12.7326
Au 14.0291 7.56563 15.0935
Pd 12.6434 6.77433 17.4607
Au 21.2312 10.3421 8.18552
Pd 19.7972 9.32909 10.3733
Au 18.3278 8.29649 12.6525
Au 16.8679 7.36761 15.0339
Pd 15.4546 6.59274 17.3983
Pd 22.6588 9.44206 10.468
Au 21.2649 8.30979 12.6619
Au 19.794 7.32809 15.038
Au 18.3348 6.50048 17.3858
Au 24.1127 8.49638 12.7524
Au 22.7131 7.38666 15.0321
Pd 21.2208 6.53871 17.4031
Au 25.5497 7.61401 15.1151
Pd 24.1327 6.62135 17.402
Au 26.941 6.77247 17.4427
Pd 30.5763 15.9589 27.8813
Au 30.5969 23.6014 27.9532
Au 29.779 13.578 26.4783
Pd 29.7389 25.9365 26.4993
Au 28.8987 11.2506 25.0568
Au 28.8485 28.3049 25.0881
Au 27.9436 8.92527 23.5804
Au 27.9028 30.6156 23.6027
Au 28.3167 14.457 28.8667
Au 28.2595 25.0774 28.8887
Au 27.4538 12.1079 27.4212
Pd 27.3847 27.3891 27.4442
Au 26.4977 9.74316 25.9676
Pd 26.4638 29.7448 25.9437
Au 25.9667 13.0096 29.7716
Pd 25.912 26.4552 29.7536
Au 25.0393 10.629 28.3113
Au 25.0654 28.8639 28.3178
Au 23.5542 11.5834 30.6314
Au 23.5888 27.9196 30.6197
Au 30.5895 15.9152 11.628
Au 30.6346 23.5597 11.5853
Au 29.7664 13.5666 13.0245
Au 29.7711 25.9868 13.0342
Au 28.8925 11.2292 14.478
Pd 28.8493 28.2862 14.5278
Au 27.941 8.93981 15.9538
Au 27.9439 30.5921 15.9423
Au 28.2645 14.4656 10.6923
Au 28.3167 25.0426 10.6266
Pd 27.3826 12.1376 12.1231
Pd 27.416 27.4141 12.1232
Au 26.5042 9.8148 13.5433
Au 26.5335 29.728 13.5704
Pd 25.9155 13.0761 9.82438
Au 25.9773 26.4925 9.73686
Pd 25.0335 10.7523 11.2678
Au 25.0781 28.8515 11.2312
Au 23.6211 11.653 8.96851
Au 23.595 27.9022 8.9051
Au 8.87186 15.9523 27.8856
Au 8.875 23.5612 27.8768
Au 9.70949 13.5606 26.48
Au 9.71658 25.9377 26.4703
Au 10.6327 11.187 25.0294
Au 10.6146 28.2895 25.0442
Au 11.5985 8.89346 23.5741
Au 11.5555 30.6051 23.5797
Au 11.1888 14.4624 28.8705
Au 11.1721 25.0361 28.8549
Au 12.0785 12.0528 27.4419
Au 12.0366 27.4419 27.4173
Au 13.0191 9.74476 25.959
Pd 13.011 29.7607 25.9219
Au 13.5722 13.0185 29.7637
Au 13.5176 26.5068 29.779
Pd 14.5017 10.7002 28.2829
Au 14.4389 28.9085 28.3093
Au 15.8986 11.609 30.5752
Au 15.9275 27.9533 30.6358
Au 8.98443 15.927 11.5515
Pd 8.96873 23.5 11.5764
Au 9.79758 13.5612 12.9654
Au 9.73621 25.9063 12.9458
Pd 10.6981 11.2313 14.4561
Au 10.6013 28.3047 14.3992
Au 11.6276 8.89862 15.9039
Au 11.5574 30.6408 15.8909
Pd 11.2905 14.5038 10.657
Pd 11.2632 24.9756 10.6232
Au 12.1371 12.0794 12.0521
Au 12.09 27.4274 12.0045
Au 13.0552 9.76621 13.5162
Au 13.0179 29.7818 13.4832
Au 13.6279 13.0246 9.73836
Au 13.5912 26.4785 9.70135
Pd 14.5427 10.7025 11.229
Pd 14.5218 28.8292 11.1733
Pd 16.03 11.6653 8.94501
Au 15.946 27.8969 8.87701
