923
Atoms. Timestep: 20892
Au 23.3847 24.9361 26.7002
Au 27.1375 15.7656 9.51204
Au 10.7287 12.9248 14.0562
Au 16.7265 19.0629 25.2184
Au 15.9333 28.6428 15.4791
Au 12.0147 21.2858 17.533
Au 16.2247 13.9909 30.5
Au 13.5736 13.919 29.5849
Au 19.1512 15.554 6.25753
Au 29.9094 21.762 19.5435
Au 23.2076 28.0972 27.6679
Au 7.29989 25.6899 22.0885
Au 18.4342 34.0644 22.3779
Pd 9.43092 12.9704 18.1501
Au 6.82245 21.9976 18.917
Au 19.6827 13.7654 21.2519
Pd 12.4281 21.8243 23.2563
Au 14.5859 14.9854 22.274
Au 18.1747 21.1583 20.4049
Pd 26.248 25.0096 16.124
Au 21.0018 13.5289 6.35948
Au 28.3239 13.0345 8.59036
Pd 18.1043 9.18063 24.0941
Au 19.5714 6.7756 11.9923
Au 16.978 13.3335 18.0122
Au 25.6294 34.4644 22.098
Au 9.56107 28.7299 15.7136
Au 31.6399 15.5569 12.4195
Au 20.3874 34.0746 16.2611
Au 25.6961 24.336 25.157
Au 11.777 26.9331 20.9785
Au 32.1255 18.1221 13.98
Au 13.8189 15.5585 17.045
Au 13.9008 25.6064 24.7102
Au 25.0386 28.7776 18.347
Au 21.1702 25.1272 16.6195
Au 26.944 7.26254 22.1468
Pd 18.7751 17.1898 24.6202
Au 26.4531 28.6984 13.8873
Pd 27.5003 22.3547 20.7126
Au 10.9735 21.338 28.384
Au 10.6542 19.0828 16.6527
Au 20.5603 6.20411 16.8153
Au 19.0958 8.70729 26.7059
Au 27.8255 20.2857 29.9372
Au 6.80174 15.5983 15.4462
Au 25.9319 9.28073 26.0531
Au 15.035 27.9585 31.8055
Au 15.4737 34.8854 18.0016
Au 26.8855 14.7984 21.5057
Au 10.368 28.6815 26.9788
Au 23.648 19.9464 10.3827
Au 11.821 13.462 16.594
Au 16.8409 36.3136 21.7472
Au 23.4202 23.5407 23.8698
Au 20.9395 8.84969 13.0013
Au 9.97277 20.035 11.4075
Au 30.3161 26.4499 26.4609
Au 9.23108 13.5623 22.6533
Au 14.626 5.97179 18.791
Au 10.0917 26.2806 28.4111
Au 31.772 13.1863 22.1506
Pd 25.8005 19.7792 12.1216
Au 29.7935 19.0199 15.5186
Au 16.711 16.5931 21.1595
Pd 19.999 9.80837 22.2827
Au 28.5148 23.9759 18.5518
Au 15.4044 34.1715 22.1891
Au 20.2845 24.9291 7.54383
Au 26.4165 33.0872 19.6667
Au 17.1127 19.5673 17.6241
Pd 15.2692 6.18351 24.5786
Pd 28.8666 11.6898 17.7532
Pd 22.0516 7.20137 18.8977
Au 16.1017 16.3728 9.82644
Pd 23.6263 28.3412 22.6901
Pd 29.8705 14.249 18.7798
Pd 20.133 19.0249 31.2213
Au 27.151 23.301 9.24492
Pd 10.8867 26.2099 15.9219
Au 21.3524 7.34692 21.5428
Pd 15.2695 13.7299 15.5273
Pd 21.3962 22.9338 27.1197
Au 15.3225 11.8118 29.1656
Au 14.01 24.7395 16.2713
Au 24.5688 11.5643 19.4036
Au 11.7227 28.2719 29.2543
Au 20.867 21.9531 20.1225
Au 12.6585 8.05115 18.4638
Au 12.0729 24.8136 30.0116
Au 12.6664 16.722 23.2219
Au 13.1111 13.6434 10.0284
Pd 15.2665 23.4875 23.2672
Au 13.8313 15.6185 31.6956
Au 23.7829 5.38706 20.067
Pd 24.6321 27.3797 16.0319
Au 14.7491 18.9339 13.7033
Au 17.7325 24.9224 13.3583
Au 9.00681 14.0743 15.7373
Au 12.6834 20.0059 15.0599
Au 26.7589 30.9173 17.6802
Pd 24.4706 9.00317 11.166
Au 11.207 16.9365 25.6653
Pd 22.6481 14.8048 11.0137
Au 12.5526 22.7927 15.1183
Au 28.766 15.42 27.9337
Au 19.0139 4.94674 13.8407
Au 25.2646 19.4944 6.46587
Au 25.3404 18.2166 8.87652
Au 29.2383 13.1993 21.4022
Pd 20.2464 17.673 15.085
Au 8.31597 19.9333 15.2917
Au 14.1777 23.1265 25.7091
Au 12.7413 25.4659 13.9355
Au 29.3076 8.51845 22.0151
Au 17.6172 27.8698 13.3904
Pd 7.71601 29.3506 22.5339
Au 20.4258 21.5873 32.0909
Au 16.6896 25.8102 22.3415
Au 24.1691 20.8493 23.9847
Au 14.5611 25.5071 20.235
Au 8.19071 26.6627 16.6297
Au 13.244 23.1742 8.50615
Au 21.907 28.2012 8.38114
Au 25.001 6.51815 10.4996
Au 10.8142 19.4218 30.378
Au 24.189 15.7334 25.3364
Au 10.054 25.4244 22.3309
Au 19.2831 29.9179 14.5516
Pd 8.08829 24.6579 27.0131
Au 13.2152 27.4362 11.7411
Au 18.4621 31.5665 29.6496
Au 25.5509 26.2045 13.7529
Pd 18.6808 20.9674 10.8118
Au 28.1415 26.6152 14.8555
Au 15.375 16.3984 29.6505
Au 24.2857 18.4941 33.5199
Au 15.6804 32.1569 18.3883
Au 20.6436 27.9895 13.0247
Au 17.2931 13.7537 25.5242
Au 29.856 25.0597 13.3039
Au 13.6058 22.9964 28.633
Pd 20.6036 17.0428 19.6944
Pd 13.3189 11.9825 14.7817
Au 20.5257 17.9121 6.73296
Pd 19.1795 22.8685 25.139
Au 12.7952 7.75346 13.8313
Au 25.6177 6.09285 15.1136
Pd 23.6314 23.6538 21.1364
Au 11.585 11.3654 21.7762
Au 15.7572 29.6478 23.0234
Au 12.5121 17.6682 18.2302
Pd 18.8116 27.9845 25.776
Au 15.4781 8.1901 13.4837
Au 14.0442 29.5319 29.7111
Au 17.6485 29.1564 28.1289
Au 25.3195 8.71091 16.0527
Au 15.3044 18.1802 27.6697
Au 30.6767 13.1523 11.2009
Au 15.489 24.6307 30.1235
Au 23.0781 7.74732 9.05605
Au 19.3211 36.4823 20.973
Au 12.5801 6.28515 20.4853
Au 26.3641 30.3783 20.2636
Au 11.4544 27.9461 13.7794
Au 16.9717 4.33989 18.7629
Au 17.9773 24.0337 34.211
Au 13.1727 17.9324 29.9012
Pd 24.4899 18.1484 17.5026
Au 32.1475 24.8015 22.0553
Au 31.2582 22.6803 23.55
Au 19.9046 26.5383 18.6453
Au 19.481 21.1922 22.9406
Pd 27.5676 10.4296 15.5947
Au 19.691 35.0256 18.7399
Au 18.1519 23.5285 22.6782
Pd 16.2457 27.1534 24.7408
Au 11.2835 29.5236 19.9933
Au 13.5185 22.8081 31.4547
Pd 11.5288 24.0475 24.4177
Au 26.9975 13.7548 29.0488
Au 9.10879 26.5887 13.9547
Au 14.281 33.8601 24.6904
Pd 20.2974 23.5328 30.1317
Au 23.0226 9.43122 20.4156
Pd 9.55263 21.1507 24.3249
Au 28.8508 11.0548 10.6623
Pd 18.7212 11.3448 20.408
Au 14.3138 18.3262 10.8504
Au 23.374 21.257 12.8711
Au 22.0913 23.5507 9.18436
Pd 25.5527 8.39475 8.59208
Pd 15.1913 8.94625 18.0119
Pd 24.4106 13.1263 26.5167
Pd 22.0162 18.5649 29.0806
Au 27.0741 28.4565 16.4663
Au 19.7204 11.0405 28.4585
Pd 27.7622 7.83589 14.9537
Pd 19.4356 26.3057 31.1889
Au 11.4932 31.6631 21.8453
Au 24.7524 13.7346 23.5518
Au 18.0694 12.0411 30.4079
Au 10.2228 30.7218 17.6451
Au 28.7896 30.5761 23.3796
Au 18.3874 19.473 13.2776
Pd 24.8141 7.75902 18.8389
Au 19.3738 20.3538 15.7568
Au 20.7959 3.86632 15.6573
Au 19.1937 8.44797 17.3278
Au 28.0647 13.4843 23.8723
Au 15.0274 26.859 13.5802
Au 11.3117 14.3585 24.7082
Au 27.5652 20.8858 18.342
Pd 27.4801 18.3486 10.4965
Pd 16.4114 18.928 9.04146
Au 31.013 22.8173 14.5226
Au 24.548 28.6014 30.0971
Au 26.5276 25.9897 9.29367
Au 16.216 9.90026 8.80889
Au 27.8245 19.6902 7.91563
Au 13.6169 24.9927 10.7255
Au 22.614 13.3254 13.3128
Au 25.1832 14.6571 30.9289
Au 6.51631 17.4555 17.5462
Au 9.87472 22.936 26.2567
Pd 20.887 23.4806 22.3741
Au 10.2185 17.276 11.5169
Au 17.1337 34.1311 19.9807
Au 23.3356 11.0718 25.0467
Au 13.1677 12.4618 23.857
Au 24.8037 19.7093 26.4714
Au 27.1319 17.2547 7.08508
Au 20.4798 15.3528 17.511
Au 27.0147 6.96042 17.3996
Au 33.7459 16.0855 20.4475
Au 18.2299 18.3743 19.8882
Au 32.062 20.5513 15.4389
Pd 27.097 8.75187 10.663
Au 20.2552 36.4128 28.0592
Au 15.4831 4.69745 16.4949
Au 18.7067 33.9491 28.2132
Au 18.4324 30.6754 21.8687
Au 25.9887 30.001 22.9599
Au 21.2415 24.6592 24.8384
Au 23.1669 18.3009 24.6872
Au 18.0217 18.4835 5.92989
Au 20.0713 22.2016 34.6476
Au 22.4776 24.728 31.1963
Pd 22.7969 19.8032 19.5217
Au 20.2037 28.8271 10.357
Au 23.1672 13.0506 31.7363
Pd 26.2897 26.3293 18.3988
Au 16.4388 10.624 11.3776
Pd 19.3992 15.3672 26.4363
Au 17.9798 23.3929 31.5069
Au 21.8419 26.5324 33.0675
Pd 22.1079 31.9311 20.8826
Au 17.6481 10.9678 25.9998
Au 27.9893 25.6411 25.4929
Au 25.9761 16.9865 32.1243
Au 25.6161 13.0556 9.18306
Au 25.7265 22.1665 30.6073
Au 11.8665 17.5275 32.1146
Au 20.2858 28.7445 16.9821
Pd 20.4603 32.286 22.9628
Au 25.4467 12.0064 6.76936
Au 17.149 5.21235 22.8659
Au 22.7233 6.36669 23.6901
Au 9.39801 31.4474 23.3584
Au 22.7981 11.5283 6.55363
Au 32.1654 20.8503 18.2077
Au 30.6951 14.5216 24.4303
Au 12.7278 10.8404 17.2042
Au 14.3977 31.127 25.2333
Pd 18.0011 17.6543 30.1259
Au 28.7241 18.138 28.3707
Pd 18.6544 7.48491 21.9648
Au 12.5436 27.0926 26.9263
Au 10.6458 21.2645 13.7025
Au 23.8091 28.7418 13.5304
Au 19.2499 16.8893 32.6923
Au 25.0087 20.7272 17.7259
Pd 30.896 11.894 19.502
Pd 18.0765 24.7973 29.2752
Au 25.5197 31.8923 26.6747
Pd 19.6036 19.49 28.5239
Au 23.0595 30.8448 27.1094
Pd 19.6248 14.3395 23.9034
Au 16.6706 21.6723 8.90617
Au 19.7744 3.95385 18.4202
Au 24.0712 10.5815 8.74662
Au 11.5446 29.9301 24.8441
Au 17.4234 30.7052 16.4419
Pd 23.082 33.1949 25.4186
Au 22.8424 29.1505 32.1058
Pd 21.7142 19.7912 14.4574
Au 10.9992 13.2608 29.1662
Pd 12.6886 34.0415 22.3872
Pd 23.6728 11.6201 22.1188
Au 14.4459 22.2881 10.822
Au 12.138 21.4979 25.9454
Au 26.3354 21.876 7.12444
Pd 15.087 28.2531 27.5019
Au 21.2195 26.0952 10.0629
Pd 26.6355 27.0593 29.0815
Pd 17.5966 28.1378 10.0786
Au 22.2483 23.6911 12.0288
Au 20.8506 17.8632 26.5555
Au 9.05575 17.3859 18.8849
Au 21.1778 26.8599 26.3921
Pd 23.9672 20.4947 29.0888
Au 26.4722 16.9018 26.7777
Au 13.5925 23.2064 18.8922
Au 31.4776 19.8987 23.7285
Au 10.6707 10.1569 18.8192
Au 18.764 33.3301 25.061
Au 27.4506 24.0289 13.7914
Pd 23.7535 34.0422 20.0024
Pd 11.7032 12.639 19.399
Pd 24.442 27.5924 8.8829
Pd 24.8204 24.0519 8.15794
Au 30.53 9.23275 19.5402
Au 26.1328 11.2435 11.217
Au 21.6004 11.7992 20.206
Au 9.05598 30.6373 20.6257
Pd 10.3617 18.5712 13.8874
Pd 22.6202 30.055 17.6467
Pd 25.488 32.5019 24.0798
Au 25.2295 12.3092 13.7682
Pd 15.0566 24.1949 12.9562
Au 19.9704 13.81 28.6572
Au 31.9965 15.7139 15.3867
Au 10.2874 24.079 14.1077
Au 13.9768 17.7967 8.16067
Au 21.9712 9.95803 10.4812
Au 26.2762 12.1391 21.7624
Au 28.7107 24.6677 10.8684
Au 23.5493 36.1036 21.6574
Pd 16.7064 35.0075 24.3552
Pd 9.76524 22.8579 11.6749
Au 21.5796 24.6935 19.6659
Pd 32.0954 23.0208 20.1865
Au 31.626 21.2756 26.0872
Au 23.8817 25.003 17.7111
Au 26.3298 24.8691 30.5864
Au 28.0931 22.9961 29.3957
Au 22.3316 20.6453 16.8902
Au 32.7611 13.6899 19.7007
Au 31.2657 23.4881 17.6297
Au 6.7353 16.4125 20.0914
Au 29.8484 12.0091 15.2967
Au 20.2511 21.6364 13.0738
Au 28.4463 10.663 25.7284
Au 15.6373 12.3533 7.97681
Pd 12.9091 29.9519 27.2672
Au 20.8116 18.9717 12.0407
Pd 20.4273 12.9218 15.7688
Pd 20.6223 11.5048 13.2828
Au 19.4301 29.0851 30.2817
Au 11.6527 32.3056 19.2842
Pd 19.3148 6.54849 19.3292
Pd 19.2054 26.8659 15.3427
Pd 20.8939 34.2394 26.6675
Au 21.3772 21.3682 10.5884
Au 21.5615 27.635 20.6066
Au 20.9797 36.8576 25.5081
Au 23.3 8.35593 25.5957
Au 8.34214 19.9149 17.9881
Au 18.7674 15.2927 15.3986
Au 11.2303 24.2453 20.0904
Au 21.5892 9.34996 7.64458
Pd 13.3634 20.5885 29.6663
Au 25.3081 14.2176 11.6454
Au 8.16865 16.7648 13.3612
Au 16.1895 10.9411 14.1102
Pd 21.6862 16.537 12.8904
Au 8.32761 23.9934 20.3949
Au 28.3331 23.3242 23.7353
Pd 22.0891 20.2277 26.8455
Au 25.2083 34.5546 25.9105
Pd 10.08 16.1223 22.8733
Au 10.4394 12.3832 26.7451
Pd 28.9606 20.4364 10.7983
Au 18.2532 4.65237 16.4015
Au 9.31082 11.8673 20.5613
Au 20.5448 7.75809 24.4109
Au 16.366 16.3158 25.8075
Pd 17.8919 22.1186 17.4169
Au 32.3407 15.7263 18.1021
Au 16.5306 29.9366 30.5127
Pd 12.3636 23.1445 12.3565
Pd 18.0544 18.803 22.6231
Au 17.2651 17.8305 15.1663
Pd 16.203 28.5682 20.6237
Au 24.7309 23.9163 32.476
Au 15.9658 11.2255 19.5109
Pd 15.6771 23.4057 32.8409
Au 19.8415 14.3221 8.7022
Au 17.6296 21.2737 6.01196
Au 21.2861 30.4279 12.3708
Au 17.4354 36.528 18.9867
Au 19.309 24.8116 26.9094
Au 20.7681 10.7439 17.5114
Au 18.0246 9.01046 13.0162
Au 17.7975 12.6909 15.4178
Au 31.1186 15.6345 20.7646
Au 23.1415 22.5474 18.6776
Au 11.7154 9.40416 23.745
Au 32.9716 18.0774 22.1373
Au 17.8567 35.2202 16.6309
Pd 29.5407 14.5716 15.9248
Au 18.1044 12.3768 12.5586
Au 28.1822 18.9689 13.1806
Au 26.4351 14.5979 7.02943
Au 30.3843 25.2475 24.0658
Au 20.2614 24.2868 32.8463
Au 10.2053 25.9781 25.7641
Pd 18.4843 29.9698 11.9943
Au 29.6745 23.9434 21.3829
Au 25.4745 16.0296 16.1703
Au 21.7975 29.2175 25.1107
Au 20.167 16.5378 28.8777
Au 22.221 14.558 22.4235
Au 20.7144 18.8168 9.36885
Au 17.7596 27.9954 17.595
Au 5.96743 17.965 22.1722
Pd 21.5861 21.6785 24.6556
Au 22.5522 9.25345 23.1443
Pd 21.9945 27.3856 15.2517
Pd 22.9208 18.8288 7.7702
Au 29.029 15.394 7.64012
Au 28.2494 19.4465 20.4804
Pd 14.6463 18.6955 16.4743
Au 15.0208 12.222 26.2983
Pd 16.884 8.93316 15.8301
Au 16.3038 33.1752 26.4358
Au 16.575 30.7197 13.786
Au 19.4201 27.337 8.27662
Pd 25.984 21.5323 14.068
Pd 6.41754 18.1906 14.915
Pd 23.4991 18.5174 12.7878
Pd 11.8651 14.1524 21.9664
Au 16.2863 23.2833 15.3455
Au 18.0226 12.166 9.56557
Au 26.9397 16.4102 29.6863
Au 10.6442 17.5131 28.4732
Au 11.4518 14.7793 11.9313
Au 16.3998 23.2057 27.756
Au 19.4985 27.0787 28.5421
Au 10.6644 15.7052 17.4119
Au 17.4972 8.88424 19.6719
Au 16.3599 23.5198 20.6927
Pd 22.1457 29.9488 29.5913
Pd 23.8611 25.4236 10.2921
Au 20.6133 30.2124 19.429
Au 13.3577 27.6511 15.8792
Pd 24.8965 21.4111 20.5748
Au 18.5144 35.746 26.2141
Au 27.2764 13.0706 19.3695
Au 13.4244 33.0529 17.3143
Au 8.05328 22.077 13.6198
Au 8.3003 20.8057 20.8961
Au 19.9349 22.7049 6.08605
Pd 21.8373 27.3749 30.3571
Au 15.2384 26.8056 17.8358
Au 9.77043 23.6893 28.9737
Au 14.3611 15.4518 11.9117
Au 27.8829 13.6102 11.1425
Pd 24.4236 22.7244 16.0337
Au 24.13 26.0058 29.2449
Pd 14.7631 5.49487 21.7455
Au 22.5688 11.3338 15.4517
Pd 30.2507 11.9301 24.1384
Au 8.63791 19.3113 28.7017
Au 13.9685 33.5797 20.0097
Au 23.3962 35.8744 24.37
Au 23.4642 29.6383 20.3463
Pd 19.5048 25.8066 21.533
Au 8.23458 24.1536 17.6563
Au 20.3676 7.933 9.6762
Au 20.7025 27.3764 23.5682
Au 18.729 19.9878 8.0596
Au 18.095 17.7655 27.2647
Au 19.6737 13.0234 18.5012
Au 22.3519 25.7147 22.3716
Au 16.7301 10.3649 21.9785
Pd 23.7411 7.92149 13.8844
Au 7.27831 22.271 25.3322
Au 24.2832 7.38191 21.734
Pd 24.1384 17.1528 30.1629
Au 21.8996 16.0055 8.07961
Au 15.8114 13.5627 10.3541
Au 23.2115 10.4336 13.074
Pd 18.0303 10.829 17.671
Pd 28.4019 26.2246 20.1432
Au 29.3951 17.732 8.83532
Au 19.247 20.2405 25.8977
Au 21.931 17.3178 22.1845
Au 28.9975 26.5676 17.5237
Au 17.0873 20.3174 27.9721
Au 19.1413 23.1723 15.0915
Au 7.8087 15.0762 17.9623
Au 17.3347 18.8818 32.5143
Au 13.7433 19.8555 19.1206
Au 19.3712 16.3975 22.0477
Au 28.0709 27.9357 26.8917
Pd 14.0854 31.8673 22.7236
Au 11.8557 18.881 9.8425
Au 15.0558 8.3803 10.8396
Pd 19.2104 10.3107 15.1764
Au 18.8888 23.7892 19.6819
Au 21.029 29.7239 22.2622
Pd 29.4483 21.1092 22.2579
Au 25.3244 7.09395 24.3417
Au 32.2225 18.2172 16.7451
Pd 20.8628 34.6668 23.9962
Au 16.5996 20.5198 15.1762
Au 29.7888 15.4955 10.3337
Au 21.8526 15.9021 5.38839
Pd 11.9201 24.4092 27.2052
Pd 21.5129 25.2948 28.6227
Au 26.7958 14.2413 26.303
Au 23.1086 31.0492 23.5969
Au 28.0669 7.95979 19.7046
Au 8.81348 17.2102 16.0063
Pd 25.5143 19.4903 31.2497
Au 16.0298 33.2839 15.9066
Au 26.3502 21.4454 27.9632
Au 16.1457 20.2331 11.5606
Au 30.9234 25.4623 19.4602
Pd 24.6334 23.6188 13.324
Au 11.5577 8.64778 16.133
Au 6.43958 19.1608 19.7596
Pd 12.7519 13.6216 26.9113
Pd 13.9357 17.6865 25.4512
Pd 12.6654 25.9703 18.3279
Au 26.6566 9.92671 18.1976
Au 11.2194 23.9566 17.2863
Au 23.5254 12.144 11.0042
Au 12.9646 24.4237 22.1694
Pd 11.3672 28.2297 17.6508
Pd 8.99445 27.5723 20.9287
Au 14.559 31.042 15.7687
Au 14.6889 9.76957 27.4284
Au 14.6234 25.35 27.4025
Au 26.3087 7.14234 12.7009
Au 23.5341 23.2541 29.0055
Pd 11.2576 17.2979 20.8125
Au 17.7186 28.3524 32.3611
Pd 13.3671 10.4167 19.7131
Au 9.69736 22.1524 18.9167
Au 25.3681 27.5578 11.3921
Au 22.852 17.402 10.3313
Au 18.1863 14.8068 10.9259
Au 13.9015 26.8104 29.6043
Au 22.9293 26.3168 12.6435
Au 22.3837 4.4862 17.9151
Pd 15.8382 21.4875 19.0343
Au 25.3398 9.59983 23.3882
Au 11.6923 8.72633 21.0362
Pd 24.3373 14.0294 20.6538
Pd 18.4253 31.4812 26.9614
Au 8.79126 29.526 25.0216
Pd 16.2441 31.7887 21.0429
Au 21.354 21.2479 29.3587
Au 5.86126 19.9512 17.0419
Au 19.9304 19.9935 18.4027
Au 28.9452 16.481 25.5385
Au 14.5994 21.6593 13.6256
Au 22.352 10.9633 29.7816
Pd 18.8404 17.4997 17.3933
Au 24.4698 15.5364 8.94095
Au 24.6895 21.2272 33.1648
Au 21.6007 6.12474 14.1101
Au 30.1883 17.9523 11.5165
Au 23.3294 17.1169 19.9191
Au 25.9249 9.48494 20.7876
Au 24.47 16.2726 22.4447
Au 11.494 10.1955 13.9775
Pd 22.4394 21.1794 22.0657
Au 21.9469 22.706 14.9207
Au 15.7419 19.1961 30.2177
Au 15.2403 20.7496 32.5035
Au 13.9625 17.1751 20.7016
Au 18.6356 4.40836 20.8772
Au 7.43979 15.6487 22.5713
Pd 25.1858 13.8689 18.0123
Au 15.5842 19.6264 6.64666
Au 21.2342 4.87293 20.5156
Au 23.2342 9.67055 17.6928
Au 24.3138 26.6188 31.9023
Au 27.1619 13.1105 16.0844
Au 7.42923 19.6782 26.0639
Au 16.4088 17.3142 12.4084
Au 19.3722 10.2875 11.0002
Au 16.621 16.2348 32.0702
Au 28.6545 21.4883 14.1516
Au 29.1522 15.9164 22.6926
Pd 14.6279 20.8488 27.1408
Pd 13.8819 10.1213 12.6361
Au 21.1922 34.6015 21.1085
Au 22.5427 27.3708 17.9802
Au 27.3672 18.0484 17.9201
Pd 19.2682 7.46611 14.7841
Au 16.859 6.35739 14.9164
Au 25.8401 23.2676 18.5314
Au 25.7629 16.1879 19.4123
Pd 25.0048 25.7161 22.8384
Pd 22.4866 23.1438 33.6963
Au 11.9728 32.4921 24.5153
Au 19.0403 30.343 24.4428
Au 16.4439 8.1589 26.1796
Pd 24.7872 15.1966 28.2311
Pd 27.8686 16.9387 15.4997
Au 13.9192 28.4834 24.98
Au 22.7355 13.3191 8.67081
Au 20.5099 19.3806 21.1347
Au 25.314 16.9671 11.426
Au 6.89268 22.1923 16.1812
Pd 18.2458 32.925 17.7793
Au 11.2206 24.2011 9.90071
Pd 11.9191 19.2463 24.4209
Au 22.4071 7.07225 11.5435
Au 19.0199 26.4698 11.5427
Pd 28.6454 16.5737 19.9219
Au 29.916 16.7432 13.9841
Au 20.6516 11.6304 8.48557
Au 22.8343 25.8325 7.69857
Au 24.5267 22.6745 10.6397
Pd 17.4955 12.7829 27.9735
Au 26.6431 11.646 27.4919
Pd 14.9604 16.4065 14.6516
Au 30.3107 28.2218 19.7025
Pd 17.1066 15.2569 23.3714
Pd 22.4655 14.611 29.7628
Pd 21.5527 8.74644 15.6588
Au 11.7321 27.105 23.8643
Au 31.6779 13.227 17.0263
Au 20.4137 29.5489 27.515
Pd 13.8864 30.851 20.2554
Au 25.9411 24.3097 27.9789
Au 29.0545 8.85162 17.3098
Pd 12.6771 20.1213 32.1561
Pd 27.5955 19.3748 26.3125
Au 12.2289 12.1112 12.0363
Au 8.61439 27.1724 23.8589
Pd 16.9785 6.85285 17.6491
Au 16.0557 7.86058 22.833
Au 13.5334 32.6859 27.0382
Au 20.6432 31.0874 31.5383
Au 7.28498 22.7092 22.6061
Pd 19.9883 33.513 30.6021
Au 23.6913 33.4025 28.0577
Pd 27.0555 19.6904 15.781
Au 16.8487 14.7092 13.4352
Au 25.9941 18.7087 28.7294
Au 25.9387 9.65238 13.512
Pd 10.5241 11.8062 24.1952
Au 15.8488 19.3807 20.892
Au 16.2195 16.8755 6.99716
Au 28.4109 10.6945 20.2933
Au 14.1146 12.6691 21.0366
Au 20.6504 12.615 30.9231
Au 16.6449 29.7632 25.6405
Au 19.0958 26.4973 33.8631
Pd 29.0124 30.6585 20.5048
Au 23.775 14.1682 6.34485
Au 22.1703 13.5979 25.0168
Au 10.0751 19.6077 26.4991
Au 16.8211 25.8111 32.3643
Au 20.5266 10.4052 25.0285
Pd 18.9704 22.2401 28.0508
Au 22.0744 12.4115 27.5955
Pd 20.9155 31.7325 25.6593
Pd 27.8835 16.3265 12.2259
Pd 17.7134 8.21281 10.3813
Pd 21.2615 21.075 7.81318
Au 14.2133 7.02419 16.2424
Pd 24.3531 19.8541 15.1887
Au 26.7279 14.7471 14.0389
Au 11.7296 21.6093 10.0807
Pd 24.0211 13.8122 15.6109
Au 9.26167 18.3087 24.1843
Au 27.4021 32.3557 22.0356
Au 20.2608 20.1624 5.41987
Au 13.2073 19.3841 21.9921
Au 24.6359 31.1947 29.3365
Au 18.3121 15.4216 19.3093
Au 12.5671 16.3064 9.97536
Pd 18.1716 25.2453 9.3151
Pd 17.4944 22.1077 13.1432
Au 24.4399 12.6264 29.2786
Au 26.9429 10.6655 8.64845
Au 16.1247 26.1562 11.1369
Au 17.2109 14.5485 8.00381
Au 14.4678 15.0071 8.16986
Au 16.5591 25.9715 15.6224
Pd 27.6082 15.2546 17.7031
Au 21.6925 17.733 33.5871
Pd 12.7032 20.1734 12.186
Au 17.2773 26.0983 19.6425
Au 9.92637 26.1669 18.7231
Au 15.5718 31.0298 27.9659
Au 23.3747 25.0892 15.0659
Au 26.5 21.5507 25.0397
Au 14.1143 13.0067 18.1585
Au 8.09904 27.3182 26.5478
Au 22.9549 20.9123 5.67174
Pd 16.6861 32.1635 23.8072
Au 12.5607 15.1433 19.4973
Au 17.2227 9.96182 28.4534
Au 24.338 31.8045 18.557
Pd 12.3949 17.2602 15.4787
Pd 22.0709 15.2476 27.1854
Au 28.5628 9.23144 12.7833
Pd 8.54544 18.0323 21.4843
Au 20.6201 25.1382 13.7405
Au 21.8146 34.7849 29.2819
Au 25.8205 29.333 27.7585
Pd 22.5733 12.843 17.7938
Au 18.5024 12.4211 6.9413
Pd 26.6925 15.8483 24.0898
Au 16.8173 27.2115 29.9178
Au 21.6523 9.57045 27.3479
Au 8.14399 21.7486 27.8423
Au 18.0951 28.1261 22.9798
Au 29.3497 21.0205 27.7742
Au 13.944 25.4866 32.082
Pd 28.103 10.715 23.0186
Pd 10.3408 29.0672 22.5988
Pd 16.0067 24.0932 18.0246
Au 29.7563 21.5138 16.6971
Pd 12.962 30.3814 17.8366
Au 13.9673 10.0638 22.3765
Au 15.3922 17.7387 23.2175
Au 29.26 21.1579 25.0036
Pd 12.5924 17.3465 12.7767
Au 23.5556 15.8785 32.6588
Pd 20.6734 12.8584 10.9001
Au 15.4853 29.5164 18.1174
Au 16.7551 21.7537 25.4694
Pd 25.8216 17.7896 14.0482
Au 15.8153 12.6812 23.4719
Au 21.571 16.7746 31.0875
Pd 30.681 10.7406 21.843
Au 10.0142 22.7203 22.2239
Pd 15.5542 11.2973 16.7062
Au 24.1511 10.4588 27.6564
Au 24.5662 29.3476 25.3195
Au 11.9454 21.635 20.516
Pd 14.0936 9.49656 15.3755
Au 25.8761 27.7061 21.0278
Au 30.1224 9.36147 14.9345
Au 24.6951 31.9627 21.4838
Au 14.1814 14.8973 24.981
Au 17.5833 23.7616 7.0796
Au 18.8943 28.3242 20.4097
Pd 31.1939 10.5279 17.1715
Au 11.8737 30.0729 15.4522
Au 10.7151 19.5204 19.4189
Au 27.8106 25.7833 22.7293
Au 23.3023 6.88454 16.5015
Au 18.2277 20.7939 30.5489
Pd 26.233 24.7613 20.6659
Au 10.2507 11.2155 16.2031
Au 27.8158 8.4146 24.363
Au 29.2541 24.324 15.9221
Au 14.46 20.4094 24.3555
Pd 14.4213 21.7869 21.3674
Au 7.49844 13.8198 20.4379
Pd 15.3281 14.9693 19.4881
Au 23.6515 17.4887 27.3698
Au 20.0191 14.257 13.1307
Pd 14.5808 21.5926 16.6723
Au 21.3583 36.9718 22.7607
Au 27.9092 11.8735 13.3012
Au 12.9944 29.3929 22.4085
Au 25.8671 18.405 24.3097
Au 30.5645 11.1304 12.8736
Au 13.7078 8.2648 25.3466
Pd 15.3046 14.5213 27.615
Au 20.9143 32.1734 28.4567
Pd 18.777 25.673 24.2729
Pd 7.34491 26.2748 19.2814
Pd 25.7974 22.9868 22.7243
Pd 29.2315 27.9074 24.2908
Au 14.5537 18.0915 32.406
Pd 23.0036 22.043 31.3278
Au 29.967 16.753 17.38
Au 29.2055 13.1756 26.3931
Au 20.3072 9.19421 19.7035
Au 27.8299 26.7844 12.1932
Au 16.5855 15.7852 16.9068
Au 20.2374 31.4118 16.7854
Pd 27.1973 22.2299 11.7628
Au 13.2675 7.3332 22.8938
Au 12.5673 10.7948 25.8908
Pd 16.7842 6.42168 20.4036
Au 26.8568 17.551 21.8496
Pd 19.4519 32.6197 20.2365
Pd 30.6983 20.1888 13.0432
Au 23.0003 35.82 27.0225
Au 12.7468 11.436 28.4621
Au 8.73988 28.6782 18.5048
Au 23.1114 33.7049 22.8038
Au 30.3247 18.865 26.1953
Pd 24.1405 15.6616 13.5671
Au 21.6384 33.0357 18.5004
Au 6.86338 17.3617 24.6039
Au 8.73515 15.2173 25.0133
Au 14.8 12.8353 12.7032
Au 24.1236 5.46321 12.8952
Au 13.6792 28.1991 19.6503
Au 22.8556 32.3679 16.1816
Au 18.8498 36.5322 23.6604
Au 15.713 28.9168 11.7948
Au 31.8884 20.4688 21.027
Au 24.0331 22.3062 26.4238
Au 15.8286 21.9478 30.1272
Au 16.675 21.1425 22.829
Au 21.7243 15.184 15.1835
Au 15.6628 17.5769 18.6676
Au 10.4781 15.7907 14.2575
Au 21.1727 12.0951 22.9794
Pd 18.5724 17.0099 8.44851
Au 17.7593 21.4497 33.3799
Au 22.5379 23.382 6.54455
Pd 18.4626 11.945 23.4149
Au 22.6636 18.4144 5.10512
Pd 29.3724 14.1724 13.3019
Au 23.1201 17.474 15.2654
Au 22.8165 19.3731 31.5133
Pd 8.57988 24.3517 24.2756
Pd 24.1084 18.991 22.0213
Au 18.1288 6.59268 24.8192
Au 18.8766 14.8558 30.9457
Au 19.6273 23.757 11.337
Au 26.3809 5.8689 19.9122
Au 11.0959 22.1378 30.8572
Pd 27.8242 28.6189 18.9893
Au 22.2197 20.4588 33.9494
Pd 25.5172 26.7778 26.6419
Au 16.9718 13.4384 21.0924
Pd 27.1908 22.523 16.2608
Au 23.4206 4.4589 15.3526
Au 7.8325 24.4548 15.0121
Pd 26.1264 24.7491 11.5
Au 23.9206 26.2587 20.1266
Au 7.87607 19.336 12.7859
Au 16.9468 23.4575 10.9551
Au 15.4336 10.1356 24.5934
Au 22.8024 28.4414 10.9385
Au 25.0622 11.4477 16.5612
Au 20.3474 28.6658 32.7725
Pd 21.4313 16.1846 24.5707
Au 23.9259 21.4728 8.13802
Pd 17.6454 15.4072 28.5235
Au 28.5382 25.3844 28.172
Pd 8.60045 17.2749 26.7357
Au 12.9625 14.6504 14.2336
Au 23.1836 15.6456 17.6184
Au 14.5414 5.69718 13.9009
Au 9.83371 14.9492 20.1868
Au 18.8112 9.73437 8.25928
Au 29.9801 19.2186 18.3924
Au 14.3526 27.1133 22.4281
Au 15.5829 24.3916 8.82466
Au 12.5943 19.064 27.3874
Pd 23.4227 26.7734 24.8003
Au 24.7535 30.1504 15.876
Au 7.24317 20.0174 23.3357
Au 28.6886 18.6796 23.7595
Au 26.4331 27.6331 24.2123
Pd 21.8289 14.5904 19.774
Pd 19.776 12.6969 26.1117
Au 11.5684 15.6627 30.1202
Au 10.9306 25.7353 11.9999
Pd 20.3591 16.3065 10.5299
Au 28.2302 28.4755 21.8232
Pd 30.3824 26.7456 21.9107
Au 27.2272 30.0755 25.449
Au 31.2005 17.234 24.1206
Au 26.2536 20.7725 9.64707
Au 31.7947 13.3685 14.054
Au 24.4003 16.8161 6.48621
Au 30.3534 18.2253 21.5664
Au 20.5504 22.6642 17.4887
Au 16.6691 24.489 25.3277
Au 26.6462 20.3687 22.5114
Au 18.4153 32.7174 14.8746
Au 18.4498 24.8404 17.1463
Au 30.7307 29.3479 22.1279
Au 30.4695 23.6684 26.2096
Au 25.6224 18.9735 19.8209
Au 29.9131 22.6381 12.0509
Au 22.6331 32.5206 30.5364
Pd 27.971 23.1488 26.6097
Au 9.61829 22.1614 16.0903
Au 18.9523 16.7262 12.9425
Pd 18.3479 18.2798 10.766
Au 14.1496 11.164 10.091
Au 17.1049 26.4205 27.2477
Au 13.8542 29.4094 13.6694
Au 25.027 5.11469 17.6344
Pd 22.0112 30.033 15.0085
Au 21.6665 18.0602 17.4672
Au 15.1965 22.3366 6.85392
Pd 10.3683 15.0493 27.326
Au 14.032 20.4827 8.82335
Au 20.0287 5.42339 23.0204
Au 26.1378 11.769 24.8046
Pd 19.3194 22.6961 8.83461
Pd 13.0671 16.19 27.7209
Au 20.9388 32.3427 14.2148
Au 16.905 6.35294 12.2164
Au 10.5113 19.8029 22.1602
Au 19.6527 19.5321 33.8757
Au 32.2232 18.1374 19.4951
Au 32.8126 15.4885 22.8821
Pd 14.6436 8.13423 20.5399
Pd 21.1112 14.696 32.5479
Pd 17.885 30.5123 19.1317
Au 20.7216 19.038 23.9349
