923
Atoms. Timestep: 20704
Au 13.1691 10.3929 28.49
Au 20.1275 13.5712 21.0208
Au 17.3694 20.3222 26.6142
Au 18.2478 14.7368 19.1508
Au 6.26333 21.9606 25.9773
Au 30.6975 11.3742 23.067
Au 14.152 29.0051 19.7343
Au 19.5726 31.9062 28.8783
Au 28.1408 23.8962 16.9684
Au 23.6112 20.0664 24.9208
Au 19.0595 16.5743 23.5104
Au 21.1435 10.0964 14.1984
Au 20.2232 11.182 19.3844
Pd 29.4159 16.3907 18.9214
Au 31.4458 26.3293 20.6242
Au 18.7057 26.5638 17.3502
Pd 17.2139 17.5827 21.6046
Au 13.0374 29.0087 13.1277
Au 23.6849 17.5414 28.1202
Pd 16.1743 18.5033 31.6816
Au 23.4947 28.3056 15.9893
Au 28.4701 24.6182 28.6664
Pd 13.4453 28.7523 22.4538
Au 27.6797 16.0252 9.50477
Au 6.95152 15.6438 26.7638
Au 9.44787 24.7192 27.3015
Au 14.1347 10.7089 31.0479
Au 18.1199 24.1318 30.5373
Au 18.1893 12.5654 17.4924
Au 13.7738 16.1278 6.59113
Au 25.7065 18.611 8.72845
Au 23.8155 20.435 34.2215
Au 25.5147 25.1267 16.9041
Au 23.0935 31.6222 25.5877
Au 25.6704 28.92 13.2586
Au 13.6523 13.7949 23.058
Au 26.0976 28.7986 28.7092
Pd 26.2482 21.2531 9.15845
Au 15.4551 23.829 17.7314
Pd 18.5842 29.6037 14.0231
Au 21.3578 11.9168 24.4868
Au 14.9077 28.4672 11.2095
Au 18.3821 18.9178 10.5566
Au 19.9052 19.0319 6.64069
Au 30.011 20.3093 27.9717
Au 24.4682 28.8316 25.5806
Au 17.6566 12.2123 24.5122
Au 17.7931 28.1433 28.4182
Au 21.1289 31.7125 23.661
Au 26.3479 17.7569 23.0112
Au 19.5632 33.3743 22.0862
Au 16.7658 20.3449 21.9139
Au 19.0079 9.08894 10.1718
Au 9.732 19.4915 21.6737
Au 20.062 26.8197 19.7734
Au 26.9078 23.6494 30.9198
Au 25.5436 16.9196 4.65784
Au 19.0347 17.5374 17.9993
Au 29.2791 31.8415 21.451
Au 18.0456 34.6198 20.299
Au 16.0471 12.7203 22.3348
Au 13.4763 27.1315 15.0197
Pd 15.5267 14.2964 20.0623
Au 10.1637 19.2673 18.8631
Au 23.4066 18.6524 3.93959
Pd 15.7887 22.4387 25.9253
Au 15.2339 21.2191 14.4997
Au 11.3396 12.3497 19.2177
Au 20.7452 16.6793 32.4265
Au 12.1913 18.4584 6.68145
Au 31.4848 12.1276 20.6092
Pd 14.9227 14.871 28.5887
Pd 25.7834 13.7019 22.94
Pd 14.3533 24.6322 29.9132
Au 12.4335 18.2404 30.8897
Pd 29.6865 22.1846 11.8948
Pd 23.2391 27.5542 13.2932
Pd 23.9956 26.9467 18.4461
Au 8.38378 21.7324 20.6591
Pd 21.2296 29.6326 12.5844
Au 30.7116 15.7065 26.8442
Pd 19.9236 20.6006 25.6907
Pd 12.6825 16.2759 22.5588
Au 10.1211 17.824 11.6012
Au 28.5417 10.5268 15.8417
Au 20.9133 8.90293 21.0211
Au 25.3907 10.6442 19.6177
Au 26.2191 25.1404 12.0823
Au 8.01477 25.7606 20.7079
Au 8.49393 20.8374 14.6876
Au 12.0146 25.0456 26.4788
Au 16.6683 10.0177 23.2143
Pd 20.221 29.4482 28.1643
Au 5.27121 19.3112 18.1916
Au 14.8899 18.6662 6.30313
Pd 33.226 19.5687 24.7942
Au 12.0386 20.6504 20.5372
Au 20.6448 19.661 9.26682
Au 23.1928 28.9531 8.91185
Au 25.3039 12.6277 12.8988
Au 28.855 15.0311 12.043
Pd 23.3922 22.2936 28.0314
Au 16.0406 26.2901 16.3681
Pd 24.1603 30.2295 20.9778
Au 22.3471 8.77687 12.014
Au 17.8691 20.1284 8.00319
Au 9.44028 12.3278 24.444
Au 24.6292 19.7518 11.1085
Au 18.3783 32.1545 24.3303
Au 13.2762 13.6585 8.12035
Pd 24.6184 10.711 17.0226
Au 14.6201 21.0132 17.7992
Au 15.7236 10.2191 20.5305
Au 33.6872 19.0805 19.4754
Au 13.7032 26.2154 21.6134
Au 11.9284 18.7313 23.2858
Pd 13.1071 24.9825 9.95853
Au 16.2367 16.3248 5.5797
Au 23.9247 11.6423 9.03579
Au 12.3746 24.6433 14.4511
Au 21.4338 14.8701 11.9561
Au 15.3254 12.1345 33.1077
Au 9.85892 26.1818 18.834
Au 30.7656 18.5011 25.8523
Au 15.7804 9.37078 29.2494
Au 17.5955 12.2662 7.14509
Au 16.6863 10.68 16.1076
Au 22.4293 15.2921 30.0974
Au 27.9274 27.0856 27.4302
Pd 32.6323 25.6047 18.3018
Au 14.8748 26.3874 18.997
Au 17.3199 26.208 32.2974
Au 15.3539 19.1391 19.7201
Pd 19.6346 23.8953 7.15216
Au 20.1677 8.59241 18.3859
Au 7.60481 19.5971 25.8623
Au 16.8894 10.9787 31.0907
Au 17.7891 7.31142 19.2961
Au 12.3605 12.5419 29.884
Au 27.5288 9.973 26.4117
Au 15.2234 22.8226 23.2448
Au 16.9187 33.5192 15.9077
Pd 28.4995 32.3498 18.8077
Pd 30.4543 16.0646 24.267
Au 18.4944 8.74992 28.6029
Pd 28.7425 21.3666 17.6481
Au 14.9784 23.3136 6.09764
Au 21.6839 22.0603 19.4521
Pd 16.3481 30.5002 12.4159
Au 21.8208 12.2177 16.2222
Au 28.8914 22.104 29.7483
Au 22.4494 26.7196 26.2506
Pd 20.3467 9.8934 25.9921
Au 16.2225 14.4699 17.2752
Au 7.60844 16.0795 15.4596
Au 13.2396 25.3364 17.0125
Au 30.5424 26.7389 23.1562
Au 9.18438 17.0453 19.7787
Au 7.24725 18.9724 22.6518
Au 26.5024 27.1007 24.788
Au 16.2054 21.0145 5.81585
Au 18.8856 34.0061 17.6769
Au 14.2632 16.3537 17.4152
Au 14.1393 23.9357 12.2838
Au 6.96637 13.7038 24.8307
Au 17.766 11.3062 28.3785
Au 31.0449 13.9953 22.4656
Au 12.2829 17.4851 15.7999
Pd 23.1701 32.1087 19.2697
Au 22.4866 21.5011 32.0459
Au 19.4839 19.209 35.7352
Au 11.1046 29.3109 25.6597
Au 10.2612 15.4646 14.5485
Pd 16.6033 16.8209 19.0472
Au 16.746 17.6624 8.00082
Au 19.2663 29.4771 19.591
Pd 15.2622 24.078 20.4936
Au 30.2822 16.5304 21.4702
Au 17.5223 10.8241 11.6511
Pd 28.4 19.3988 30.0265
Au 34.5344 20.8198 17.6247
Au 21.165 20.85 34.411
Au 29.7347 25.4329 26.0405
Pd 27.4553 23.1449 10.6644
Au 26.8341 22.086 13.0509
Pd 27.3811 29.9622 17.9836
Au 25.322 7.87496 19.6546
Pd 17.7209 24.2928 15.1172
Au 4.92386 15.4762 25.0391
Au 28.9459 24.6335 12.6821
Au 18.906 16.4315 6.22735
Pd 15.1838 23.1509 9.88355
Pd 27.7336 27.0124 13.2424
Pd 28.4074 18.7477 9.07819
Pd 25.3751 26.5803 14.572
Au 13.9377 23.5015 27.484
Au 29.227 22.4506 14.6804
Pd 20.9759 27.3313 24.0592
Pd 14.2803 14.8598 25.4742
Au 19.0883 16.8169 34.7401
Au 16.3808 16.3323 26.8779
Au 10.69 26.3852 16.1419
Au 21.8209 29.1295 30.3252
Au 16.6078 17.62 24.2925
Au 24.6283 18.0092 33.5591
Pd 12.3131 11.7449 11.254
Au 10.4021 20.4053 10.7003
Au 21.2058 28.1676 7.18487
Au 20.9973 27.9398 14.7737
Au 16.681 22.918 12.5717
Au 20.4291 24.5538 10.8205
Au 29.0609 25.0472 9.84202
Au 22.9233 16.0745 4.35219
Pd 15.5948 28.6357 14.2501
Pd 21.3103 26.8544 28.7249
Au 17.5652 24.0301 5.4781
Au 18.4781 28.1366 7.73043
Au 20.667 18.6496 21.7242
Au 11.5249 27.926 20.5761
Au 22.5282 32.9186 14.7064
Au 22.2407 31.2187 28.2197
Au 23.7303 27.5473 6.43043
Au 18.6868 12.347 9.69959
Au 5.44906 17.2994 16.4266
Au 16.6416 6.11569 17.0842
Pd 22.2124 9.53913 16.6506
Au 6.401 20.8704 16.299
Au 13.5081 20.8718 26.0512
Au 9.71018 24.5594 14.2816
Au 10.9364 12.0866 27.535
Au 18.8681 16.6711 28.3743
Au 21.843 12.6814 13.4683
Au 22.6734 17.4375 20.2649
Au 30.7602 18.0267 13.5117
Au 15.3847 16.7711 34.241
Au 27.9362 23.3864 19.6456
Au 27.7871 26.2015 7.8093
Pd 23.617 27.5251 21.1289
Au 30.8197 14.9383 17.1353
Au 25.193 15.4899 29.4877
Au 12.8306 19.7264 28.4437
Au 5.11911 18.4239 20.7559
Au 7.79034 18.6453 17.067
Au 11.7397 16.1252 18.5478
Au 5.49329 17.9646 25.7987
Au 16.8369 21.8502 19.4347
Au 9.34207 14.9751 24.9435
Au 11.1458 27.2524 27.779
Pd 23.9134 17.4396 30.9412
Au 11.5699 24.6619 29.1872
Au 18.5249 31.4491 16.5049
Pd 10.7121 22.1837 15.2994
Au 26.9112 18.4106 32.1177
Pd 27.7055 29.0663 15.116
Au 11.598 14.385 32.035
Au 22.081 29.1104 19.1259
Pd 16.1515 25.3921 22.6691
Au 26.476 26.1795 29.7241
Au 13.9626 9.76792 22.576
Au 15.7058 21.0502 33.2175
Au 13.053 9.49818 12.546
Au 12.5949 14.5042 20.5518
Au 25.8833 18.5001 29.5452
Au 22.1311 6.88969 17.8296
Pd 23.3154 14.9699 27.4489
Au 20.5166 7.72171 15.4679
Au 30.1135 30.2996 19.0519
Au 17.124 19.4741 17.7381
Au 10.5347 23.2711 19.961
Au 23.0449 14.4932 17.4648
Au 18.215 26.9875 14.6285
Au 26.1009 34.2836 18.5949
Au 23.9462 24.4662 26.4008
Au 12.5497 15.4972 29.7458
Pd 13.1986 22.7299 16.2538
Au 21.3455 17.7653 29.696
Pd 8.38111 15.2037 18.0381
Au 23.9723 20.6328 7.81603
Au 8.35287 19.645 12.3592
Au 14.6384 16.4504 11.7639
Au 34.4257 17.6493 23.3559
Au 31.2124 24.5288 11.3241
Pd 20.7871 21.8162 28.3326
Pd 18.9995 15.028 16.5589
Au 21.4407 7.31933 25.3091
Pd 15.1905 9.31385 10.8763
Au 5.96094 14.7524 17.2792
Pd 28.7845 13.3551 16.1909
Au 27.5063 33.7281 20.7854
Au 17.6694 9.8575 25.8446
Au 34.2393 21.6571 20.129
Au 24.2475 22.4687 20.5215
Au 16.296 33.5154 18.6057
Pd 31.8087 18.0368 23.218
Au 17.018 21.8657 16.4584
Pd 19.7241 21.2077 11.6624
Au 15.701 25.7771 10.7417
Pd 14.0188 17.5076 24.6611
Pd 16.5045 26.1667 29.6239
Au 21.2758 8.30358 27.926
Au 29.0931 18.3309 23.2498
Au 22.2345 24.6544 24.2752
Pd 17.7911 14.0839 28.6453
Au 12.8565 7.88402 14.7549
Pd 8.88419 18.5884 29.7791
Pd 22.7811 11.9598 18.7844
Au 18.1136 23.9897 17.9808
Au 9.69226 11.9151 21.4052
Au 9.8846 12.5807 11.9673
Au 32.9008 21.7376 15.6602
Pd 26.1316 14.9633 11.6444
Au 31.8116 20.9856 18.5394
Au 33.5449 19.8937 22.1164
Au 25.7544 23.8437 28.4285
Au 15.0973 18.758 26.8252
Au 17.6086 18.7382 5.27644
Au 19.7371 23.9788 20.2711
Pd 29.2769 22.9628 22.1504
Pd 12.8458 20.1908 15.5291
Pd 12.2526 25.5775 23.7443
Pd 11.4499 22.3704 27.269
Au 10.0813 13.8711 29.6702
Au 13.5784 22.6377 32.3093
Au 20.2078 23.4397 34.5408
Au 12.8319 23.5789 21.8281
Pd 13.1952 20.9826 23.157
Pd 29.0804 20.5625 25.3661
Pd 18.2741 9.30608 21.11
Au 15.6247 8.78661 18.0845
Pd 12.7655 14.5928 15.4313
Au 20.3391 10.8066 11.7484
Au 20.6345 14.2072 28.3138
Au 30.3797 19.8179 11.0015
Au 14.7655 8.97516 24.9965
Au 7.03432 18.0666 27.9998
Au 19.4183 15.2328 30.6554
Au 17.517 23.4249 33.1061
Au 22.9461 29.5008 23.3901
Pd 20.2692 25.328 15.3355
Pd 6.43451 16.884 18.8772
Au 6.76261 18.6786 14.5021
Pd 23.37 24.7768 10.8692
Au 12.7964 30.5071 17.8858
Au 14.5113 32.4054 16.9071
Au 18.1215 32.2391 13.6365
Au 20.4987 10.7736 28.6597
Au 24.44 15.8339 22.0496
Au 27.9644 20.6492 22.5938
Au 20.785 24.1755 29.9443
Au 19.2695 12.5255 30.5613
Au 23.793 32.0496 22.9501
Au 23.0561 11.823 32.7932
Au 17.8254 29.9599 26.2914
Au 24.3701 32.9696 16.9886
Pd 29.1542 27.8428 19.8111
Au 19.1401 14.3553 33.3844
Pd 16.2761 13.2906 26.6284
Pd 18.1405 21.6387 29.1104
Au 17.3747 24.252 24.7068
Au 19.9463 22.9519 23.9289
Pd 23.9196 9.52277 21.6627
Pd 11.898 18.6562 26.0683
Pd 24.1522 24.3048 13.4367
Au 25.8148 10.9875 10.7739
Au 28.3584 18.8432 16.0207
Au 13.4672 20.9459 6.26631
Au 29.0503 21.4899 9.19803
Au 25.4052 25.2573 6.82047
Au 13.5234 13.7923 18.076
Au 25.9378 22.4206 17.9927
Au 26.4573 12.0955 15.4792
Pd 16.5755 23.7487 28.2472
Au 21.7898 25.6235 6.26486
Au 8.8422 22.2074 26.4029
Au 19.8151 25.2111 32.5332
Pd 16.882 12.2718 13.8568
Au 6.8283 14.3325 20.0276
Au 12.9067 27.4661 25.4847
Pd 19.8344 16.451 20.4265
Au 8.53392 12.5449 18.8013
Pd 25.4715 24.609 24.1808
Au 6.25506 21.7739 18.834
Pd 17.581 16.413 32.5836
Au 18.4107 21.2475 34.3292
Au 28.1532 27.7983 22.4392
Au 21.9326 26.6337 31.4428
Au 31.6884 28.1426 18.6782
Pd 15.4761 20.065 24.3661
Au 10.696 23.9684 17.309
Au 12.0129 14.225 12.679
Pd 17.5823 14.9443 8.07997
Pd 25.9874 25.2259 9.48776
Au 11.2453 10.0979 14.5336
Pd 21.4574 20.7046 23.4078
Au 25.7574 22.1742 6.35164
Au 15.1117 23.9102 14.9255
Pd 17.5614 25.5237 7.80154
Au 21.4087 12.8094 9.95226
Au 16.8236 26.0145 26.7286
Au 14.7184 11.8869 24.6151
Au 10.8721 18.1886 9.0427
Au 24.8359 22.558 11.2428
Au 16.4553 30.3202 20.7721
Au 24.6072 11.1026 30.8524
Au 27.4447 26.1361 18.6674
Au 12.2405 30.5807 20.734
Au 20.0853 29.1434 16.9862
Au 18.9734 30.6121 11.5238
Au 30.8624 23.121 16.9391
Au 29.1751 17.5597 11.3326
Pd 24.8393 22.836 15.5116
Au 17.5821 23.1389 21.8196
Au 23.346 26.1267 8.56406
Au 19.3023 9.81697 30.9564
Au 14.709 28.6665 17.0148
Au 17.4973 25.6967 20.1616
Au 19.48 17.2849 15.2849
Pd 23.2345 28.6767 27.9967
Au 7.49405 19.3109 19.7987
Au 16.9973 28.1381 18.9306
Au 8.42073 23.7739 22.4752
Au 20.63 31.5594 18.2469
Au 16.8097 10.4075 9.01601
Au 20.6838 17.6721 4.33713
Au 18.7467 17.9698 25.9586
Au 13.7817 14.5472 33.7491
Pd 14.5548 17.7186 29.3252
Au 15.5882 11.9516 18.4151
Pd 7.1653 16.6057 21.4577
Pd 30.7006 17.4316 16.1106
Au 28.9578 11.3291 20.8418
Au 23.9733 17.8699 17.8887
Pd 33.3654 23.14 18.033
Au 29.0847 27.9183 25.0412
Pd 15.9652 7.78052 21.6509
Au 25.2051 20.3953 22.4528
Au 30.6143 20.3199 15.8362
Au 17.1949 30.671 29.0863
Pd 31.7369 27.0333 16.1682
Pd 23.8499 26.8759 23.7776
Pd 24.3253 12.8575 28.8171
Pd 24.3056 13.7679 31.4476
Au 27.7172 16.5797 30.2337
Au 15.6117 7.80414 15.3327
Au 22.6511 13.7957 22.9541
Au 26.042 15.5435 24.8773
Au 19.6896 22.5894 15.9858
Au 19.5175 10.555 7.90407
Au 10.5839 14.0423 17.1091
Au 9.83112 16.5728 22.4517
Au 14.7309 7.43064 12.8423
Au 15.3966 12.2945 29.2276
Pd 13.316 16.6168 27.2284
Pd 13.8624 13.9844 10.7203
Au 16.9067 16.8903 16.294
Au 19.5984 13.903 23.6314
Pd 22.0819 22.2345 25.6932
Au 21.949 25.5193 34.097
Au 18.7769 22.8918 26.7169
Au 15.8964 27.5334 8.73211
Au 19.8929 22.437 32.0728
Au 30.1043 25.1122 15.1614
Au 17.8197 20.6373 31.603
Pd 18.8637 30.7464 22.0036
Au 25.465 30.4173 15.8182
Au 26.2823 21.2408 29.4014
Au 15.788 32.0006 24.8305
Au 17.8117 27.2548 24.4374
Pd 16.7748 19.9678 12.5178
Au 8.17054 23.2372 16.0263
Pd 22.1595 23.1618 14.9656
Au 14.0003 9.97411 15.9257
Pd 9.27487 17.2308 26.5713
Au 12.6157 10.6879 25.8153
Au 11.6298 15.8564 8.02165
Au 24.5716 29.7357 18.3316
Au 24.1723 27.5492 30.2582
Pd 15.3016 15.8865 22.4478
Au 18.0547 6.86201 14.4642
Au 19.4374 12.4659 26.5427
Au 28.2944 10.0194 23.5746
Au 23.0582 9.45643 25.9097
Au 29.3397 17.567 28.1801
Au 27.624 9.14522 20.3372
Au 19.7656 25.2144 25.4258
Au 21.4951 25.9641 21.9155
Pd 21.8816 23.8183 8.60249
Au 5.95791 22.8616 23.4293
Au 11.0677 17.5529 28.5883
Pd 24.8155 27.1942 11.0071
Au 15.6836 26.0774 13.4938
Au 25.3789 19.3244 5.85101
Au 16.7675 14.7991 24.3561
Pd 22.7058 30.8453 16.7223
Pd 23.3988 25.1136 29.2226
Au 30.2866 29.2981 21.7487
Au 15.2518 30.9352 27.2633
Au 20.1977 28.844 9.75763
Au 24.1766 30.2988 29.9112
Au 24.8468 15.5302 19.3158
Au 12.2592 22.4165 10.6615
Au 21.4018 16.4879 17.8427
Au 17.7815 12.2451 20.3793
Au 21.5764 17.1233 13.5955
Au 23.9934 11.3898 23.6896
Au 27.6156 14.4694 18.3391
Pd 13.515 12.9439 27.3242
Au 24.2854 16.8135 6.9649
Au 25.8796 15.9022 32.1037
Pd 26.6231 16.6774 27.5877
Au 22.5329 18.8188 6.41594
Au 25.2779 8.73189 27.2831
Pd 20.6127 13.6751 18.2478
Au 23.4735 18.2451 22.8971
Au 24.8488 33.691 20.9876
Pd 19.6075 19.0835 33.0554
Au 26.9347 9.08626 17.6784
Au 21.8137 9.45611 23.4922
Au 21.3972 24.3043 27.3453
Pd 30.0297 25.7644 17.9842
Pd 27.0424 15.9539 20.7969
Au 32.8731 22.1707 23.6883
Au 27.9532 26.4436 15.8833
Au 16.9117 7.41806 24.3002
Au 16.8047 32.7071 22.0252
Pd 27.5399 22.6499 24.4283
Au 27.5098 23.4722 7.93716
Au 18.4564 6.69036 21.8853
Au 23.4384 23.3881 17.7056
Au 27.1358 14.486 14.1924
Pd 23.0732 25.5655 15.6994
Au 19.2843 26.2977 5.93352
Au 21.2255 20.7026 14.1974
Pd 28.9125 19.9601 13.5246
Pd 20.385 26.128 8.60815
Pd 22.2595 18.9199 32.298
Au 23.3495 23.521 6.21191
Au 22.8876 23.0147 34.4466
Au 28.2454 17.2624 25.5585
Au 9.47668 22.614 29.0949
Pd 17.9883 12.0319 33.2085
Pd 12.8111 23.0836 24.7263
Au 30.078 28.0783 14.3195
Au 21.1806 6.71955 22.658
Au 31.6628 21.242 25.9954
Au 8.6539 15.9481 28.8326
Au 25.2792 18.4171 20.4199
Pd 11.1882 19.7602 13.3639
Au 18.9412 7.44398 26.3795
Pd 13.6824 17.9101 8.76212
Au 7.34989 16.6212 24.2215
Au 15.0267 11.8404 11.7611
Au 10.0351 26.6898 25.4358
Au 14.0763 11.2847 9.28313
Au 22.4489 24.0929 32.0053
Au 14.5062 21.0921 11.5168
Au 20.857 24.2067 17.7099
Pd 14.4808 18.614 22.1997
Au 12.6834 21.9986 13.4217
Au 19.5376 17.1421 8.68238
Pd 24.2639 22.733 30.4498
Pd 29.4287 11.7075 25.3931
Au 15.4766 13.9208 6.67051
Pd 33.2367 24.1437 20.5375
Au 28.1489 12.2984 27.666
Au 26.5154 19.9556 24.8435
Au 31.5254 24.3326 22.5566
Au 27.3449 21.156 31.9055
Au 16.8554 17.2946 13.1363
Au 10.2051 16.4075 30.994
Pd 31.8364 21.8721 21.2054
Au 25.1297 22.6248 32.942
Au 17.2799 29.4276 9.91148
Au 22.017 9.92671 31.0215
Au 17.1655 14.8115 14.5116
Au 26.8592 17.173 18.3402
Au 13.0774 29.1692 27.5833
Au 14.4031 31.2799 22.4628
Au 21.3323 31.3006 20.9744
Pd 17.6958 21.6108 24.1788
Au 15.9207 27.772 21.4479
Au 9.9515 19.895 27.5092
Au 15.2874 6.37693 19.3463
Au 8.77736 21.3481 17.7608
Au 21.6704 10.0201 9.55931
Au 11.8585 13.3776 25.2625
Pd 28.1382 15.5598 23.1143
Au 18.2272 16.5212 3.70783
Au 27.6162 20.1932 11.1862
Au 4.95232 17.4647 23.1962
Au 26.4666 23.2913 21.9952
Au 25.1356 26.6723 27.3605
Au 28.1577 18.5115 20.5767
Au 30.1015 12.6642 18.437
Au 25.2793 22.2214 25.9161
Au 25.2204 13.0822 18.1229
Au 29.2066 14.1426 20.5723
Au 12.7339 18.9596 11.1493
Pd 17.1938 21.3846 10.3137
Pd 22.0717 27.1916 10.752
Au 17.8377 14.1377 5.22554
Au 19.6444 22.2021 9.18878
Au 22.072 12.4461 30.1419
Pd 26.0316 27.891 16.9705
Au 24.088 13.5849 25.2777
Au 31.2204 19.0507 20.7321
Au 30.2592 23.1341 24.6664
Pd 10.1873 18.7241 32.2025
Pd 26.7936 13.0723 20.4935
Au 31.4537 29.6732 16.4478
Au 31.8632 26.0883 13.4721
Au 21.2919 15.2874 34.7221
Pd 23.6226 14.1031 7.90233
Pd 26.1605 26.1736 21.9891
Au 24.7848 20.0161 27.439
Au 23.2943 15.8033 33.0568
Au 11.7406 10.054 20.9319
Au 13.9855 18.8439 33.262
Au 27.133 24.7381 26.259
Pd 25.92 31.7818 19.3905
Au 23.4358 16.4292 15.5599
Pd 21.4863 13.9519 32.2706
Au 19.6182 21.317 21.4213
Au 23.019 7.01981 20.7253
Pd 22.0085 19.5893 11.8481
Au 26.9232 21.136 15.5805
Au 25.6353 27.7234 8.31583
Au 30.0498 15.2355 14.4382
Au 20.4044 6.36676 19.956
Pd 23.9092 20.4788 18.6997
Au 12.3858 20.4037 8.72787
Pd 23.2008 11.2762 11.6312
Au 20.1523 14.0345 7.65123
Pd 12.2888 25.4476 19.5244
Pd 23.6552 18.7064 13.8681
Pd 23.7751 13.8576 10.7789
Au 21.6432 31.0491 10.3301
Au 27.7053 12.7328 11.417
Au 14.9616 25.1032 8.02462
Pd 26.433 17.6916 11.2577
Au 18.0908 25.2862 12.4573
Au 31.646 23.3114 13.6689
Pd 25.7906 31.3129 12.1233
Pd 13.6496 30.4251 15.2696
Au 21.2434 16.8153 26.9844
Au 32.7812 19.0574 16.7796
Pd 18.8027 18.0472 30.7496
Au 9.49829 18.5775 24.3079
Au 8.14064 23.9219 18.7045
Au 11.5766 21.3305 17.8791
Au 19.5546 19.3599 28.1898
Pd 19.3011 21.4528 18.4665
Au 11.0976 14.9494 27.4179
Pd 11.8157 30.5639 23.3914
Au 25.0501 17.8758 25.7017
Au 10.6526 22.0917 22.4932
Au 19.2346 8.65906 23.7057
Pd 7.57756 20.7355 28.3282
Au 30.7918 20.5695 23.2977
Au 18.7663 19.3052 23.4835
Au 12.5617 25.1642 31.7562
Au 21.7586 17.9894 34.7194
Au 18.3569 32.0824 19.6592
Au 20.9763 20.3727 4.47378
Au 18.863 21.59 5.80524
Pd 13.1873 23.0376 19.0561
Au 29.0663 12.6218 13.7052
Au 14.6879 25.0111 25.1821
Au 22.0335 15.6901 9.39162
Au 21.6086 16.1991 6.72499
Au 15.5799 18.7312 10.4489
Pd 21.3856 14.432 25.5663
Au 24.8997 16.0574 9.48232
Pd 22.9704 18.31 9.2271
Pd 24.2677 20.2371 16.0508
Pd 19.8429 12.3603 5.6512
Pd 12.1992 16.975 13.1919
Au 25.8191 18.0034 15.8437
Pd 19.4806 19.8527 16.2859
Au 24.5144 23.2638 8.6157
Au 27.4749 19.3602 27.3726
Pd 20.6694 17.4019 11.0706
Au 19.8606 33.5075 15.173
Au 26.0361 28.0527 19.994
Au 14.6804 16.4355 14.6534
Au 28.138 29.4705 12.2809
Au 28.1252 17.2099 13.7636
Au 28.5696 14.8689 28.3495
Au 23.9987 21.2993 13.4883
Pd 17.2863 28.0086 12.2265
Pd 20.7296 30.8909 14.9473
Au 27.7607 22.1488 27.2128
Au 22.9462 9.26274 19.1523
Au 21.7386 33.7442 17.1377
Au 26.9318 24.2827 14.566
Au 26.4543 19.7212 17.9374
Au 28.9037 25.4581 21.0925
Pd 19.677 10.5208 16.5324
Au 32.0002 17.1457 18.5623
Pd 18.9604 25.3837 28.2204
Au 32.9977 15.4313 23.3662
Au 18.2778 26.7903 10.0883
Au 17.5967 32.4608 27.0139
Au 12.7875 27.1123 29.8234
Au 11.6479 16.214 24.9916
Au 18.8034 15.1125 26.1178
Au 9.72371 15.2282 11.5852
Au 12.9057 22.2344 29.6777
Pd 23.2862 32.2039 12.1728
Au 21.4059 21.4794 7.088
Au 20.6835 32.3734 12.6805
Au 8.16507 14.1204 13.499
Pd 12.2304 16.2328 10.5557
Pd 28.3163 16.1132 16.2801
Au 21.5051 26.887 17.4415
Pd 5.47015 20.1844 24.1306
Au 17.2353 8.11255 12.1857
Au 24.8 25.2314 31.6682
Au 26.4011 31.7525 22.178
Pd 19.4013 11.2588 22.5714
Au 19.6122 27.5922 26.4796
Pd 21.7104 29.374 25.8604
Au 19.38 18.8817 13.124
Au 16.4996 14.3511 34.0167
Au 27.5193 11.6887 18.1414
Au 30.7398 23.7226 19.6297
Au 26.1312 8.13127 22.2896
Au 10.4466 12.7508 14.5441
Pd 21.1881 19.2895 18.8187
Pd 23.5177 17.0376 11.5976
Pd 21.2689 14.8273 15.1042
Au 26.051 13.403 9.36073
Pd 23.9236 24.7836 21.997
Au 26.7638 12.1639 24.9452
Au 20.5 11.4646 32.724
Au 15.3272 10.7007 26.9546
Pd 21.0909 28.7155 21.6647
Au 29.8701 18.9569 18.3016
Pd 26.6216 20.989 20.245
Au 22.2584 13.6533 5.59656
Au 9.63114 11.1986 16.6667
Pd 22.2653 12.1974 27.071
Au 28.5679 14.3546 25.617
Au 22.5373 21.4877 9.91384
Pd 11.7465 17.8856 20.6672
Au 12.127 16.812 33.1342
Pd 19.2179 13.1648 12.3826
Au 13.9139 30.0118 24.9671
Au 9.88475 10.1241 19.0738
Au 11.0662 26.9973 13.5541
Pd 17.8317 10.1309 18.6393
Au 12.2339 27.7919 17.9544
Au 9.43107 18.0023 14.3329
Au 13.2069 22.9341 8.08336
Au 13.7113 12.0561 20.8597
Au 9.971 22.2165 12.6781
Au 19.7893 23.4309 13.3196
Pd 17.2313 16.503 10.5088
Au 16.9179 19.0366 29.0479
Au 23.7873 10.8188 14.4239
Au 15.1298 27.4571 24.0467
Au 10.8662 20.9526 24.9374
Au 8.56245 26.2884 23.3281
Pd 25.6851 28.9554 22.8329
Au 14.7614 27.053 31.5354
Au 14.1318 16.7341 20.1385
Au 14.3244 13.7857 31.2015
Au 15.2062 24.6469 32.5353
Pd 18.5222 27.9893 21.8788
Au 19.2837 27.038 30.5004
Pd 14.8975 12.7365 15.7629
Au 10.917 14.0431 22.7455
Au 8.1781 21.3385 23.7677
Pd 17.4029 28.8811 16.3597
Au 23.89 22.4538 23.5235
Au 25.6762 31.0971 24.6862
Au 24.9314 30.8554 27.3919
Au 25.1415 32.6438 14.3334
Au 29.2316 31.047 16.3558
Au 20.6881 33.9675 19.646
Pd 14.2203 26.3322 27.7101
Au 15.1049 28.6262 29.2086
Pd 23.3922 30.3381 14.0887
Pd 23.2354 16.1806 24.7799
Pd 18.362 21.3655 14.0755
Pd 24.1216 13.3435 15.3643
Au 10.9862 22.9465 31.3703
Pd 9.84063 14.4938 20.2311
Au 5.61247 14.811 22.6045
Au 24.9416 9.24223 12.5993
Au 19.2328 5.92022 24.2904
Au 19.8948 8.03853 12.6996
Au 11.4848 9.12438 17.0493
Au 11.925 11.5002 23.2235
Pd 22.0445 19.5859 27.1057
Au 10.7396 20.4632 30.111
Au 23.7183 7.57 23.576
Pd 28.2872 25.2036 23.7205
Au 29.4219 21.0366 20.2296
Pd 8.74904 13.6081 27.124
Pd 24.2192 12.8517 20.9036
Au 26.2877 10.9816 22.1946
Au 26.2873 10.7656 28.8361
Au 22.5086 25.0393 19.6579
Au 28.5051 12.908 23.0381
Au 16.1851 31.0834 15.1162
Pd 14.3581 20.2329 30.8368
Au 22.3517 14.7246 20.1748
Au 25.9898 9.23826 15.1306
Au 24.2613 31.3635 9.76539
Au 20.3024 14.9154 4.41133
Au 29.3645 28.3077 17.1551
Au 28.1862 30.2078 23.5918
Au 27.5858 27.256 10.4733
Au 25.365 24.816 19.6803
Au 21.5319 16.1438 22.5865
Au 12.0546 20.5383 32.463
Au 14.5429 21.4641 20.8619
Au 14.2831 18.8781 13.4317
Au 20.2076 31.6115 26.3053
Au 10.5611 25.4927 21.6613
Au 16.2823 30.7689 18.0389
Au 15.3027 21.1895 28.3835
Au 21.8309 11.7865 7.42597
Pd 17.7586 14.8614 21.7527
Au 12.2476 11.9171 16.5232
Au 18.5574 19.2475 20.0356
Pd 18.0336 8.36456 16.6082
Au 24.7601 14.4772 5.41146
Pd 17.1957 19.198 15.0203
Au 15.0481 15.6398 8.98012
Au 24.8986 11.3305 26.6122
Pd 31.2004 13.6581 25.0586
Pd 25.719 15.2683 16.4693
Au 27.6144 20.333 7.08621
Au 24.4709 7.96993 17.0533
Au 19.4014 6.12974 17.3483
Au 13.1685 11.8908 13.8563
Au 13.5653 7.38287 17.3699
Pd 19.1042 15.8796 12.9011
Au 31.7447 14.7448 19.797
Pd 14.7008 14.1069 13.3754
Au 18.3733 9.7753 14.1358
Pd 33.0295 16.9311 21.0928
Au 27.5746 31.4774 14.1319
Au 19.3518 12.7424 14.992
Pd 22.2794 33.7405 21.6546
Au 23.3202 10.12 28.6431
Au 30.2627 23.0477 27.4062
Au 16.2762 7.93593 27.022
Au 27.1149 29.4193 26.2057
Au 21.7747 23.0854 21.9285
Au 31.5654 20.6423 13.335
Au 26.1259 13.9968 27.1735
Pd 26.2268 19.4142 13.4787
Au 18.9948 25.3987 22.6616
Pd 23.0767 20.0249 29.6452
Au 32.8594 16.8889 25.52
Pd 15.6144 28.403 26.4945
Au 24.8702 20.1145 31.6827
Au 21.7231 25.4117 13.0755
Au 20.4522 20.2792 30.5761
Au 23.3772 34.7178 19.0558
Au 25.4827 16.6705 13.6087
Au 29.9956 27.003 11.7342
Au 27.2296 17.5459 6.8411
Au 26.972 32.5232 16.6268
Au 17.026 22.7844 7.81147
Pd 23.6337 29.5398 11.5079
Au 12.7067 12.1532 32.7365
Au 12.8848 18.8029 18.2548
Au 13.2933 10.3866 18.6283
Au 32.834 24.5924 15.7376
Pd 21.8739 21.2422 16.8974
Pd 13.3126 26.5062 12.2041
Au 11.2242 13.7795 9.86087
Au 26.4019 15.0827 7.32042
Pd 10.3728 19.5859 16.1926
Au 21.8937 18.6344 16.0805
Pd 23.6518 14.8504 13.3043
Au 27.2437 10.6817 13.2223
Au 27.6904 29.9861 20.6832
Au 19.8971 27.3578 12.3003
Au 6.31031 23.6313 20.8073
Au 5.79511 20.9818 21.468
Au 10.1932 23.9335 24.6059
Au 21.9677 11.4945 21.5095
Au 8.05935 13.3719 16.0878
Au 14.4725 16.3876 31.7538
Au 11.5388 28.9104 15.5579
Au 19.2778 29.8312 30.6196
Au 16.9951 28.5982 31.0841
Au 19.5185 29.5258 24.2314
Au 26.7545 13.3366 29.931
Au 16.6485 29.7801 23.5679
Au 15.1012 20.6692 8.46256
Pd 16.9998 13.8544 31.3676
Au 8.18599 14.0897 22.4308
Au 16.7222 16.2671 30.0049
Pd 17.8266 24.0375 10.0899
Au 17.1419 18.8162 34.1941
Au 13.6635 8.24705 20.1874
Au 14.3944 31.8935 19.7343
Au 23.2387 8.13662 14.561
Pd 9.88564 16.9884 16.8853
Au 19.3581 14.9094 10.2364
Au 26.1191 29.4943 10.2797
Pd 16.0318 13.0452 9.30823
Au 10.9193 27.9724 23.222
Au 11.2846 24.5801 12.0018
Au 15.9181 22.527 30.7819
Pd 14.8843 18.7415 16.2665
Pd 22.0884 22.6852 12.2122
Au 7.75778 16.751 12.7358
Au 7.57594 24.2902 25.1134
Au 25.6262 9.377 24.5848
Au 16.7989 14.1463 11.6647
Au 23.4575 21.1549 5.03113
Au 21.2582 18.2311 24.6405
Pd 29.4578 10.0127 18.4751
Pd 22.7887 20.2073 21.1078
Pd 15.5405 9.91275 13.6187
Au 20.9821 23.1487 4.9655
