923
Atoms. Timestep: 20249
Au 19.6701 19.8045 19.732
Au 21.9792 19.8238 18.3284
Au 21.9786 19.8129 21.1705
Au 17.3675 19.7906 18.2823
Au 17.3683 19.785 21.1312
Au 18.226 22.0943 19.7122
Au 21.0899 22.0941 19.7252
Au 18.2726 17.4993 19.7383
Au 21.1225 17.5221 19.7515
Au 19.6963 18.3853 22.0453
Au 19.6658 21.2066 22.0331
Au 19.6687 18.3877 17.444
Au 19.6511 21.2262 17.4334
Pd 24.2761 19.8252 16.9345
Au 24.3474 19.8346 19.7461
Au 24.2754 19.8265 22.6192
Pd 15.0877 19.7395 16.8446
Au 14.9972 19.7809 19.6834
Au 15.0794 19.7564 22.5547
Pd 16.7974 24.3851 19.7099
Au 19.652 24.4604 19.7206
Au 22.5089 24.3805 19.7209
Pd 16.8922 15.1976 19.7528
Au 19.7155 15.1399 19.7598
Au 22.5739 15.2288 19.77
Au 19.7253 16.9739 24.3659
Au 19.6935 19.7847 24.4368
Au 19.6754 22.5969 24.3434
Au 19.6922 16.9681 15.1567
Au 19.6584 19.7894 15.0759
Au 19.6408 22.6367 15.1332
Au 22.0423 18.3729 23.5546
Au 22.0151 21.2268 23.5443
Au 22.0257 18.3802 15.9881
Au 22.0068 21.2605 15.9879
Au 17.3658 18.3396 23.5153
Au 17.3352 21.2061 23.5077
Pd 17.3473 18.334 15.9528
Au 17.306 21.2273 15.9312
Pd 23.4443 22.1425 18.3015
Au 23.4546 22.1431 21.1826
Au 15.8679 22.1256 18.2511
Au 15.8671 22.1211 21.1393
Au 23.4929 17.5062 18.3107
Au 23.4907 17.4896 21.219
Au 15.9403 17.4436 18.2727
Au 15.9275 17.4217 21.1781
Au 18.2062 23.5622 22.0452
Au 21.1089 23.5603 22.0619
Au 18.2656 16.0244 22.0826
Au 21.1715 16.0358 22.1079
Au 18.1955 23.5875 17.3812
Au 21.1138 23.5759 17.4029
Au 18.2562 16.0277 17.4084
Au 21.1581 16.0403 17.4214
Au 26.5882 19.8116 15.5415
Au 26.6928 19.8165 18.3351
Au 26.6868 19.8266 21.2042
Au 26.5686 19.8238 24.0449
Au 12.7728 19.6737 15.3832
Au 12.6557 19.7279 18.2487
Au 12.6681 19.7616 21.1395
Pd 12.8057 19.7228 23.9946
Au 15.3607 26.6862 19.7333
Au 18.2271 26.7849 19.7331
Pd 21.0974 26.773 19.7348
Au 23.9332 26.6632 19.7307
Au 15.518 12.8772 19.7704
Au 18.3288 12.7804 19.7706
Au 21.1855 12.7966 19.768
Au 24.0287 12.9296 19.7845
Pd 19.7459 15.5644 26.668
Pd 19.7177 18.3618 26.7569
Pd 19.6999 21.1799 26.7538
Au 19.6973 24.0023 26.6479
Pd 19.7616 15.53 12.8974
Pd 19.7226 18.3395 12.7799
Pd 19.676 21.2056 12.7628
Au 19.6457 24.0402 12.8241
Pd 24.3506 18.3697 25
Au 22.0659 16.9396 25.8867
Pd 24.323 21.2418 25.0007
Pd 22.0477 19.7897 25.9438
Au 22.0399 22.6304 25.8797
Au 24.356 18.3558 14.5709
Au 22.0675 16.9225 13.6725
Au 24.3184 21.2662 14.56
Au 22.0228 19.8021 13.57
Au 22.0085 22.6675 13.6401
Au 15.0595 18.3011 24.9561
Au 17.3983 16.9121 25.8605
Au 15.0158 21.1932 24.9513
Pd 17.3534 19.7604 25.9261
Au 17.3308 22.6172 25.846
Au 15.0476 18.2591 14.4807
Pd 17.383 16.8908 13.6631
Au 15.0063 21.1777 14.4524
Au 17.3306 19.7408 13.5493
Au 17.2814 22.6861 13.5921
Au 24.8926 24.453 18.2937
Au 25.7695 22.1671 16.8976
Pd 24.8892 24.4508 21.1957
Au 25.8522 22.1898 19.763
Pd 25.7727 22.1563 22.6434
Au 14.4053 24.4693 18.2516
Au 13.5616 22.0535 16.791
Au 14.4008 24.439 21.1554
Au 13.4213 22.1576 19.6796
Au 13.5458 22.1001 22.5918
Au 24.9677 15.1779 18.3148
Pd 25.8207 17.4825 16.8971
Au 24.9735 15.1698 21.2662
Au 25.8999 17.464 19.771
Au 25.8176 17.4654 22.6875
Au 14.542 15.1014 18.2972
Au 13.6192 17.3813 16.8398
Pd 14.5274 15.1009 21.2134
Au 13.5285 17.3764 19.7397
Au 13.6186 17.3849 22.6362
Au 18.2119 24.9907 24.3855
Au 16.7565 25.8881 22.0672
Au 21.1226 24.9949 24.3975
Au 19.6676 25.984 22.095
Au 22.5395 25.8887 22.0713
Au 18.2955 14.5875 24.4256
Au 16.8618 13.695 22.1123
Au 21.2074 14.5858 24.4533
Au 19.7532 13.6116 22.1428
Au 22.6485 13.7111 22.1586
Pd 18.2001 25.0244 15.058
Au 16.7633 25.9109 17.3607
Au 21.1158 25.0088 15.086
Au 19.6764 25.9885 17.3693
Pd 22.5412 25.8914 17.4019
Au 18.3027 14.5725 15.0924
Au 16.8756 13.6849 17.406
Au 21.2148 14.5792 15.106
Au 19.7558 13.6055 17.3998
Au 22.6315 13.7006 17.4095
Au 23.5698 15.9981 23.6282
Au 23.5093 23.5896 23.5751
Au 23.5629 15.9853 15.9514
Pd 23.4874 23.6262 15.9453
Pd 15.9008 15.9581 23.5768
Au 15.8229 23.5869 23.5552
Pd 15.9154 15.9457 15.915
Au 15.8015 23.6399 15.8652
Au 28.9143 19.7937 14.1299
Pd 29.0489 19.8033 16.9347
Au 29.0801 19.8011 19.7748
Au 29.0445 19.8049 22.6255
Au 28.9063 19.8079 25.4545
Pd 10.4247 19.5964 13.9096
Au 10.3094 19.6556 16.7946
Au 10.2843 19.7358 19.7262
Au 10.3816 19.71 22.6038
Au 10.528 19.6902 25.437
Au 13.9303 28.9877 19.7503
Au 16.7939 29.1243 19.7814
Au 19.6925 29.1336 19.7714
Au 22.5341 29.0857 19.7646
Au 25.3788 28.9592 19.7606
Au 14.1497 10.5164 19.7822
Au 16.9666 10.3962 19.7755
Au 19.8024 10.3986 19.7668
Au 22.6471 10.4616 19.773
Au 25.4904 10.6334 19.7805
Au 19.7506 14.1398 28.9578
Pd 19.7396 16.9334 29.0726
Au 19.7226 19.7584 29.1106
Au 19.7269 22.6003 29.0854
Au 19.7139 25.4218 28.9607
Au 19.8319 14.0904 10.6284
Pd 19.8069 16.8933 10.4989
Au 19.7803 19.7418 10.4568
Au 19.7274 22.6153 10.448
Pd 19.6422 25.4366 10.5241
Au 26.6692 18.3324 26.4324
Au 24.4132 16.8954 27.3329
Pd 22.0936 15.4967 28.1933
Au 26.6334 21.2642 26.4511
Au 24.3887 19.8059 27.4198
Au 22.0851 18.3518 28.2984
Pd 24.3565 22.677 27.3482
Au 22.0896 21.2238 28.2968
Pd 22.0626 24.0701 28.1938
Au 26.6844 18.3188 13.1431
Pd 24.417 16.8785 12.2443
Au 22.1441 15.4725 11.3976
Au 26.658 21.258 13.1268
Au 24.3867 19.7843 12.1298
Pd 22.1215 18.3206 11.2547
Pd 24.3561 22.6842 12.1985
Pd 22.079 21.2234 11.2315
Pd 22.0325 24.0837 11.3375
Au 12.7631 18.2762 26.4015
Au 15.072 16.855 27.3231
Pd 17.4125 15.4809 28.1779
Pd 12.729 21.1585 26.3988
Au 15.013 19.7508 27.4038
Au 17.3726 18.3159 28.2961
Au 14.994 22.6259 27.3035
Au 17.3312 21.179 28.2995
Au 17.3309 24.0531 28.1782
Au 12.6615 18.2016 12.9784
Pd 15.0696 16.7953 12.1671
Au 17.4552 15.436 11.3829
Au 12.6897 21.1017 12.9656
Au 14.9814 19.6597 12.0259
Au 17.3973 18.2792 11.222
Au 14.944 22.5924 12.0536
Au 17.3281 21.1857 11.1783
Au 17.2333 24.137 11.2573
Pd 26.3602 26.7589 18.3077
Pd 27.2716 24.4953 16.8896
Au 28.1394 22.167 15.4928
Au 26.3499 26.7589 21.2162
Au 27.3439 24.5138 19.7599
Au 28.2536 22.1867 18.3327
Au 27.2518 24.4793 22.656
Au 28.2441 22.203 21.2132
Au 28.1131 22.1756 24.0838
Au 12.9082 26.8082 18.2588
Au 12.1229 24.3678 16.7364
Au 11.2447 21.9817 15.3301
Pd 12.957 26.7447 21.1896
Au 11.8939 24.5286 19.7018
Au 11.0241 22.0701 18.2268
Au 12.0529 24.4224 22.6141
Au 11.0262 22.1664 21.1245
Au 11.2812 22.0578 24.0598
Au 26.4458 12.8558 18.328
Au 27.3303 15.1406 16.8941
Au 28.1594 17.4589 15.4892
Au 26.4484 12.8727 21.2746
Au 27.4177 15.1196 19.8091
Au 28.2829 17.4452 18.3473
Pd 27.3227 15.1407 22.703
Au 28.2734 17.4183 21.2363
Au 28.1487 17.4362 24.0883
Au 13.1331 12.7423 18.298
Au 12.186 15.0116 16.8484
Au 11.2791 17.3098 15.3964
Au 13.1324 12.7507 21.2487
Au 12.0878 15.0043 19.775
Au 11.1195 17.3285 18.3155
Au 12.1923 15.0432 22.6852
Au 11.1597 17.3351 21.2088
Pd 11.3262 17.3645 24.0809
Au 18.2274 26.42 26.7121
Au 16.769 27.3389 24.4262
Pd 15.3232 28.2083 22.1118
Au 21.1535 26.4253 26.7326
Pd 19.6796 27.4356 24.4598
Au 18.2352 28.332 22.1545
Au 22.5621 27.3508 24.4285
Pd 21.121 28.3326 22.1344
Au 23.9881 28.2006 22.1112
Au 18.311 13.1517 26.7485
Au 16.8998 12.1921 24.4625
Au 15.4957 11.3131 22.1468
Au 21.2252 13.1515 26.7682
Au 19.7933 12.1154 24.501
Au 18.3585 11.2016 22.1692
Pd 22.6853 12.2307 24.4889
Au 21.2408 11.2329 22.1756
Au 24.1117 11.3985 22.1717
Au 18.2437 26.4647 12.7538
Au 16.7696 27.3874 15.0143
Au 15.3157 28.2425 17.361
Au 21.1514 26.423 12.7448
Au 19.6975 27.47 15.0349
Au 18.2433 28.3684 17.3594
Au 22.5841 27.3463 15.0775
Pd 21.1345 28.338 17.3857
Au 23.993 28.1958 17.3971
Pd 18.3746 13.092 12.8089
Au 16.9194 12.1786 15.0849
Au 15.5186 11.3075 17.4074
Au 21.276 13.13 12.8244
Au 19.8204 12.1057 15.0779
Au 18.3811 11.1988 17.3983
Pd 22.6974 12.2304 15.1009
Pd 21.242 11.2331 17.3961
Au 24.0939 11.3927 17.4112
Pd 25.9124 15.9579 25.0624
Au 25.8463 23.6222 25.0669
Pd 25.062 13.6551 23.6563
Au 24.9629 25.9529 23.6131
Au 23.6208 14.5205 25.956
Au 23.5359 25.0375 25.9575
Au 25.9072 15.9478 14.5131
Au 25.8582 23.6555 14.5024
Pd 25.0452 13.6357 15.9379
Au 24.9709 25.9599 15.9363
Pd 23.6196 14.5149 13.6276
Au 23.5372 25.0591 13.5873
Pd 13.5673 15.8895 25.0517
Pd 13.4921 23.5751 25.0212
Au 14.4811 13.5866 23.6287
Au 14.3462 25.9244 23.5863
Au 15.9078 14.4934 25.9401
Pd 15.8196 25.0283 25.9159
Au 13.5861 15.8539 14.4342
Pd 13.4954 23.5502 14.3528
Pd 14.5008 13.5616 15.9059
Au 14.3107 26.0335 15.8121
Au 15.945 14.4569 13.6024
Au 15.7789 25.1379 13.5181
Au 31.2285 19.7729 12.7105
Pd 31.3503 19.7936 15.5024
Au 31.4338 19.786 18.3513
Au 31.4552 19.773 21.2088
Au 31.4029 19.8098 24.0466
Au 31.2312 19.8064 26.8717
Au 7.98444 19.5644 12.5363
Au 7.97674 19.5964 15.3676
Pd 7.9991 19.541 18.3252
Pd 8.01084 19.6268 21.1963
Pd 8.13359 19.6591 24.0685
Pd 8.22985 19.6667 26.8918
Au 12.6065 31.3332 19.8264
Au 15.4275 31.5047 19.8532
Au 18.2993 31.5291 19.8415
Au 21.174 31.4901 19.8246
Pd 24.0221 31.3819 19.8085
Pd 26.802 31.2361 19.7946
Pd 12.783 8.2074 19.7842
Au 15.5773 8.03702 19.7845
Pd 18.4145 8.03433 19.7763
Au 21.2481 8.05537 19.7774
Au 24.1202 8.1417 19.7799
Au 26.938 8.3383 19.7686
Au 19.7498 12.6832 31.2645
Au 19.7263 15.5026 31.4139
Au 19.7261 18.3268 31.4792
Au 19.7434 21.1962 31.494
Au 19.7347 24.0309 31.4377
Pd 19.7256 26.8192 31.2533
Pd 19.8888 12.6509 8.35472
Au 19.8785 15.4388 8.18687
Pd 19.8714 18.2881 8.1548
Au 19.8394 21.1532 8.09094
Au 19.7871 24.0279 8.1127
Au 19.7037 26.8426 8.25692
Au 29.0167 18.3452 27.8824
Au 26.7678 16.8756 28.8135
Au 24.4536 15.4506 29.6903
Au 22.1177 14.0498 30.5094
Au 28.9934 21.271 27.8819
Au 26.7528 19.8181 28.9362
Au 24.4719 18.3589 29.8485
Au 22.1199 16.9139 30.6682
Au 26.6689 22.7242 28.8135
Pd 24.4352 21.263 29.8101
Au 22.1383 19.8027 30.7188
Pd 24.372 24.0939 29.6682
Pd 22.1094 22.6556 30.6383
Au 22.0845 25.4928 30.5187
Au 29.0266 18.2992 11.724
Pd 26.7438 16.8542 10.8264
Pd 24.4781 15.4275 9.95487
Pd 22.2058 14.0204 9.10917
Au 29.0216 21.2353 11.6983
Au 26.7718 19.7471 10.6718
Au 24.512 18.2825 9.78245
Au 22.208 16.8601 8.92658
Au 26.7244 22.6806 10.7582
Au 24.4558 21.2189 9.74839
Au 22.1886 19.7401 8.8781
Au 24.4061 24.0936 9.86191
Pd 22.1434 22.6388 8.90342
Au 22.079 25.4888 9.03735
Au 10.4651 18.2505 27.8609
Au 12.7535 16.8278 28.8136
Pd 15.0954 15.4187 29.6413
Au 17.3829 14.0359 30.4874
Au 10.4355 21.1145 27.8465
Pd 12.6917 19.7143 28.8874
Au 15.0092 18.295 29.8182
Pd 17.3678 16.8675 30.6319
Au 12.7005 22.5635 28.7903
Pd 14.9718 21.1707 29.8133
Au 17.3146 19.733 30.7326
Au 15.0009 24.0367 29.6936
Au 17.3112 22.6078 30.7047
Au 17.3491 25.4915 30.5431
Pd 10.2613 18.1573 11.4683
Au 12.7481 16.7016 10.693
Au 15.1532 15.3101 9.86137
Pd 17.531 13.9818 9.07341
Pd 8.98149 21.9244 13.8763
Au 12.6385 19.5565 10.4812
Pd 15.0945 18.1628 9.69377
Au 17.4933 16.8243 8.88426
Au 12.6219 22.4439 10.4707
Pd 15.0183 21.0103 9.61978
Au 17.4388 19.6954 8.79818
Au 14.928 23.8433 9.60369
Au 17.3768 22.6005 8.79868
Au 17.1705 25.5674 8.96074
Au 27.8158 29.0752 18.3283
Au 28.7406 26.8153 16.903
Au 29.6495 24.5153 15.4741
Au 30.5024 22.1529 14.0587
Au 27.7984 29.1036 21.2607
Au 28.838 26.8362 19.7939
Au 29.7856 24.5402 18.3552
Au 30.6672 22.1747 16.9175
Au 28.7372 26.8195 22.6902
Pd 29.7629 24.5538 21.2371
Au 30.6928 22.2098 19.7883
Au 29.6277 24.5137 24.1117
Au 30.6429 22.2203 22.6536
Au 30.4797 22.1947 25.5376
Au 11.3896 29.1241 18.2004
Au 10.6508 26.6528 16.6681
Pd 9.80975 24.2938 15.2487
Au 7.93307 22.1245 11.3248
Au 11.6117 29.0945 21.2928
Au 10.3882 26.8947 19.7676
Au 9.59658 24.4174 18.0993
Au 8.64448 21.9882 16.7458
Au 10.6831 26.7639 22.7641
Au 9.43347 24.5692 21.1563
Au 8.52906 22.1854 19.6975
Pd 9.81329 24.3825 24.1395
Au 8.77898 22.0924 22.6626
Pd 9.01527 22.0023 25.5131
Pd 27.8981 10.5521 18.3432
Au 28.8366 12.8032 16.9236
Au 29.7018 15.1279 15.4652
Pd 30.4779 17.4516 14.0649
Au 27.9176 10.5645 21.2397
Pd 28.8935 12.8041 19.8067
Au 29.8424 15.0948 18.3882
Au 30.6513 17.4372 16.9226
Au 28.8295 12.8559 22.6908
Pd 29.792 15.0981 21.2524
Pd 30.6729 17.4132 19.8135
Pd 29.6556 15.1432 24.0996
Pd 30.6196 17.4231 22.6505
Au 30.4937 17.4389 25.4963
Au 11.7401 10.3616 18.3154
Au 10.773 12.6312 16.8481
Au 9.85873 14.9062 15.3824
Au 8.99437 17.2455 13.9408
Au 11.735 10.3637 21.2647
Au 10.6532 12.6126 19.7998
Au 9.66926 14.9112 18.3492
Au 8.75023 17.2138 16.8679
Au 10.788 12.65 22.7189
Pd 9.72559 14.918 21.2738
Pd 8.75583 17.238 19.8215
Au 9.8744 14.9994 24.1582
Au 8.8453 17.2715 22.6962
Pd 9.05006 17.3495 25.5368
Au 18.2565 27.8501 29.0688
Au 16.7938 28.796 26.7934
Au 15.3708 29.6949 24.4976
Au 13.9554 30.5652 22.1879
Au 21.1714 27.8504 29.0783
Au 19.718 28.9015 26.8212
Pd 18.2592 29.8059 24.5355
Au 16.8344 30.708 22.2357
Au 22.6365 28.797 26.7882
Au 21.1554 29.8286 24.5296
Au 19.7228 30.7371 22.2313
Pd 24.0395 29.6498 24.4626
Au 22.6174 30.6803 22.1936
Pd 25.4432 30.483 22.1217
Au 18.2986 11.683 29.0483
Pd 16.9175 10.7601 26.7792
Au 15.5041 9.80829 24.4975
Au 14.1074 8.94379 22.1587
Au 21.2263 11.665 29.0874
Au 19.7648 10.629 26.8359
Pd 18.36 9.696 24.5421
Au 16.9696 8.78311 22.1932
Au 22.6878 10.7647 26.8071
Au 21.253 9.70189 24.5365
Au 19.8167 8.78331 22.1922
Au 24.1371 9.89271 24.4972
Au 22.7073 8.85174 22.1914
Au 25.5793 9.06051 22.1468
Au 18.3704 27.948 10.481
Pd 16.9973 28.9306 12.7812
Au 15.5054 29.8263 15.0719
Au 14.0028 30.6379 17.4536
Pd 21.2247 27.822 10.4348
Au 19.8415 28.9561 12.6997
Au 18.3732 29.9382 15.0272
Au 16.8645 30.794 17.4118
Pd 22.6775 28.7548 12.742
Pd 21.2424 29.836 15.0334
Au 19.7645 30.7788 17.3929
Au 24.0941 29.6632 15.0493
Au 22.6127 30.7008 17.391
Au 25.4721 30.5257 17.4241
Au 18.4361 11.6436 10.5037
Au 16.9792 10.685 12.7795
Au 15.5378 9.76726 15.082
Au 14.1377 8.9366 17.424
Au 21.3403 11.683 10.5106
Au 19.8661 10.6126 12.7511
Au 18.4136 9.63981 15.0686
Pd 16.9895 8.8179 17.4122
Au 22.7625 10.7773 12.7946
Au 21.2974 9.69323 15.0707
Pd 19.8345 8.81427 17.4118
Au 24.1727 9.89579 15.0925
Au 22.7004 8.87818 17.397
Pd 25.5671 9.09428 17.4388
Au 28.2574 15.9173 26.4987
Au 28.2116 23.6862 26.5552
Pd 27.4381 13.6292 25.086
Au 27.3582 26.0088 25.1219
Au 26.5599 11.3149 23.6826
Au 26.4379 28.3215 23.6634
Pd 25.9887 14.4896 27.4273
Pd 25.8906 25.0719 27.4466
Au 25.132 12.1534 26.0054
Au 25.0265 27.4307 26.0162
Au 23.6609 13.0518 28.3076
Au 23.5853 26.4959 28.3121
Pd 28.268 15.9314 13.0774
Au 28.2588 23.6858 13.0379
Au 27.4368 13.5918 14.4769
Au 27.3742 26.0241 14.4852
Au 26.5482 11.3017 15.9208
Pd 26.4507 28.2898 15.9375
Au 25.9735 14.4764 12.1644
Au 25.9401 25.1098 12.1114
Pd 25.0994 12.1723 13.6087
Pd 25.0452 27.4239 13.5832
Pd 23.6731 13.07 11.3232
Au 23.6091 26.5139 11.2437
Au 11.241 15.8344 26.5323
Au 11.1857 23.5464 26.5163
Au 12.1208 13.4615 25.1303
Pd 12.0239 25.9189 25.1157
Pd 13.0858 11.168 23.6637
Au 12.9261 28.2856 23.6701
Au 13.5644 14.3895 27.4558
Au 13.4626 25.0282 27.4333
Au 14.489 12.0505 26.0064
Au 14.3486 27.3917 25.9976
Pd 15.9333 13.0357 28.2812
Au 15.8075 26.4862 28.3017
Pd 11.2481 15.7844 12.9668
Au 11.1811 23.4917 12.8548
Au 12.157 13.4395 14.3975
Au 12.0132 25.9122 14.2428
Au 13.1067 11.1549 15.8817
Au 12.844 28.4817 15.7585
Au 13.6144 14.3127 12.0861
Au 13.5296 25.0456 11.9194
Pd 14.5392 12.0261 13.5733
Au 14.3142 27.6475 13.4334
Au 16.0058 12.9467 11.2785
Pd 15.863 26.7184 11.257
Pd 33.4284 19.766 11.3487
Au 33.617 19.7764 14.0767
Pd 33.6322 19.7798 16.8967
Au 33.7192 19.7756 19.7761
Au 33.7166 19.7862 22.6558
Au 33.6493 19.8078 25.5225
Au 33.4412 19.8104 28.2457
Au 6.04008 21.496 16.0444
Au 6.38221 21.6417 13.4311
Pd 5.77931 19.0114 16.9937
Au 5.74146 19.0747 19.8778
Au 6.39452 21.8286 21.4312
Au 5.93296 19.6172 25.5298
Au 6.82133 17.3679 26.9658
Au 11.2783 33.5897 19.894
Au 14.0129 33.792 19.9287
Au 16.8935 33.8258 19.9214
Au 19.7912 33.7999 19.8958
Pd 22.6726 33.6875 19.8672
Au 25.4785 33.6338 19.8359
Au 28.1812 33.4665 19.8256
Au 11.4431 5.96009 19.7804
Au 14.1448 5.79336 19.7784
Au 17.0065 5.7499 19.771
Au 19.8658 5.77155 19.7725
Pd 22.7423 5.86513 19.779
Au 25.5993 5.90895 19.782
Au 28.3289 6.13326 19.775
Au 19.7463 11.3102 33.4835
Au 19.7366 14.032 33.6725
Au 19.7425 16.877 33.7461
Au 19.7506 19.7581 33.7709
Au 19.754 22.6449 33.758
Au 19.7438 25.4992 33.6812
Au 19.7331 28.1983 33.4778
Au 19.9254 11.2519 6.13272
Au 19.9349 13.9673 5.93425
Pd 19.9672 16.8117 5.92626
Pd 19.9729 19.6641 5.88228
Au 19.9217 22.554 5.80742
Au 19.8166 25.4585 5.84168
Au 19.7692 28.1814 6.02122
Pd 31.3105 18.4008 29.2062
Au 29.0819 16.9337 30.1823
Au 26.7583 15.4634 31.1078
Au 24.3946 14.0262 31.9656
Pd 22.0301 12.6275 32.7543
Pd 31.2878 21.2305 29.1991
Au 29.1202 19.813 30.3029
Au 26.8318 18.3368 31.2777
Au 24.4647 16.8682 32.1619
Pd 22.0762 15.4399 32.9243
Pd 28.9719 22.6825 30.1395
Au 26.7752 21.2875 31.2633
Au 24.4739 19.831 32.1966
Au 22.11 18.338 33.0475
Au 26.6667 24.1217 31.0857
Au 24.423 22.7092 32.1178
Pd 22.0934 21.2513 32.9979
Au 24.3592 25.5154 31.9484
Pd 22.0782 24.1008 32.9189
Au 22.0211 26.9154 32.7873
Au 31.3219 18.3417 10.3485
Pd 29.0359 16.8895 9.47023
Au 26.7778 15.4359 8.56712
Au 24.5067 13.993 7.6923
Au 22.212 12.5732 6.85105
Au 31.323 21.1879 10.3326
Pd 29.1143 19.7529 9.34385
Au 26.8577 18.2712 8.37023
Pd 24.5607 16.8051 7.52752
Au 22.2715 15.382 6.63954
Pd 29.0323 22.6234 9.4256
Pd 26.8148 21.2089 8.38594
Pd 24.5423 19.7238 7.46768
Au 22.2643 18.27 6.58065
Au 26.7326 24.058 8.46232
Au 24.5066 22.6326 7.42859
Pd 22.2277 21.172 6.5981
Au 24.3958 25.4816 7.57354
Au 22.1676 24.0472 6.5775
Pd 22.0443 26.8565 6.77742
Pd 8.22811 18.2805 29.2074
Au 10.4479 16.8444 30.1962
Au 12.823 15.4025 31.084
Pd 15.14 14.007 31.9035
Au 17.4404 12.6041 32.7704
Au 8.18437 21.0672 29.2177
Au 10.3709 19.689 30.3073
Au 12.68 18.2578 31.2599
Pd 15.0552 16.8194 32.0707
Au 17.3705 15.423 32.9517
Pd 10.4213 22.4984 30.1443
Au 12.6502 21.1457 31.248
Au 14.9735 19.7211 32.1949
Au 17.3589 18.2658 33.0411
Pd 12.7333 23.9651 31.0681
Au 14.9705 22.6078 32.1614
Au 17.369 21.1794 33.0833
Au 15.0644 25.4543 31.9837
Au 17.371 24.08 33.018
Au 17.4371 26.9108 32.811
Au 6.76422 17.1236 12.6364
Au 10.4966 16.3661 9.39484
Pd 12.873 15.0786 8.54333
Au 15.2621 13.8027 7.63609
Au 17.6181 12.5196 6.81863
Au 8.61373 19.9037 9.95255
Au 10.6985 18.9487 8.73718
Au 12.9732 17.7799 8.11796
Pd 15.2705 16.5644 7.40354
Au 17.5899 15.3086 6.59317
Pd 10.4073 21.0318 11.5443
Pd 12.9437 20.5715 7.99471
Pd 15.2724 19.3722 7.27532
Pd 17.6363 18.1644 6.53736
Au 10.6042 21.6237 8.85751
Pd 15.266 22.1547 7.19488
Au 17.6211 21.0209 6.42298
Au 12.9178 23.2622 7.87702
Pd 17.5946 23.9559 6.49901
Au 17.4573 26.863 6.7058
Au 29.1919 31.3775 18.4025
Au 30.1393 29.1064 16.9515
Au 31.0502 26.8038 15.5029
Au 31.9374 24.4483 14.0474
Au 32.7705 22.0824 12.6325
Au 29.1771 31.3871 21.2386
Pd 30.1878 29.1662 19.8162
Pd 31.1534 26.8717 18.3482
Au 32.1218 24.5364 16.9041
Au 32.9661 22.1284 15.4583
Au 30.1088 29.1212 22.6835
Au 31.1861 26.8912 21.2543
Au 32.1441 24.5577 19.8172
Au 33.0328 22.1409 18.3516
Pd 30.9992 26.7926 24.0972
Au 32.0924 24.5624 22.6979
Pd 32.9816 22.1437 21.2429
Au 31.9069 24.4817 25.5417
Au 32.9542 22.1823 24.1212
Au 32.7541 22.1269 26.9615
Au 10.2945 31.4955 18.4689
Au 9.30318 26.7532 14.1825
Au 8.55081 24.4199 12.7661
Au 9.93956 23.6568 10.4625
Au 6.09764 21.4079 18.7182
Pd 10.3744 31.4771 21.3848
Au 9.1889 29.3701 20.165
Au 10.0485 29.0315 15.6283
Au 7.94293 25.9519 16.4623
Pd 7.19552 23.7226 15.0472
Pd 9.48683 29.1665 22.9476
Au 8.25813 27.0834 21.6259
Pd 8.76952 28.1032 17.8789
Au 6.91516 23.7845 17.7941
Au 8.46634 26.7085 24.3228
Au 7.36544 24.4345 22.887
Pd 7.80006 25.9214 19.2726
Au 7.56779 24.2724 25.618
Pd 6.58029 21.9617 24.2013
Au 6.78957 21.9243 26.9478
Au 29.3101 8.2713 18.3775
Au 30.2249 10.5213 16.9615
Au 31.1296 12.8402 15.5101
Au 31.9718 15.1814 14.0579
Au 32.7586 17.4813 12.6605
Pd 29.2651 8.2856 21.1957
Pd 30.2778 10.5031 19.7903
Pd 31.2241 12.7736 18.3669
Au 32.1525 15.1118 16.9161
Pd 32.8883 17.4705 15.4599
Au 30.2208 10.5566 22.6382
Au 31.2453 12.7912 21.2336
Au 32.1702 15.0959 19.8348
Pd 32.9584 17.4525 18.362
Au 31.1152 12.8798 24.0819
Pd 32.0664 15.1294 22.6909
Au 32.9977 17.4255 21.2483
Au 31.9445 15.1837 25.5053
Pd 32.8941 17.4632 24.1046
Au 32.7612 17.511 26.9304
Au 10.4245 8.03223 18.3614
Pd 9.49452 10.2893 16.8954
Au 8.53761 12.5311 15.3919
Pd 7.65696 14.8351 13.928
Au 5.69006 19.1663 14.173
Au 10.418 8.03394 21.2064
Au 9.32425 10.2158 19.7827
Pd 8.39856 12.4745 18.3006
Au 7.43153 14.6726 16.8175
Au 6.5328 16.9052 15.386
Au 9.45538 10.3016 22.7044
Au 8.35832 12.4912 21.3091
Au 6.50319 16.8397 18.4035
Au 6.50526 17.0101 21.3626
Pd 8.57389 12.6492 24.1796
Au 7.44737 14.813 22.7937
Au 7.39969 14.693 19.8691
Au 7.63335 15.0234 25.6258
Au 5.81591 19.4805 22.7364
Au 6.5857 17.2434 24.2133
Pd 18.3186 29.1601 31.3621
Au 16.8574 30.1533 29.1264
Au 15.4067 31.0916 26.8292
Au 14.002 32.0064 24.5198
Au 12.6049 32.8909 22.1938
Pd 21.1317 29.1655 31.3605
Au 19.727 30.268 29.1894
Pd 18.2619 31.187 26.8911
Au 16.8372 32.1473 24.6144
Au 15.4208 33.0472 22.2682
Pd 22.5951 30.1146 29.0928
Au 21.1993 31.2368 26.9002
Au 19.7232 32.1758 24.6123
Au 18.3075 33.0873 22.2643
Au 24.0723 31.0479 26.7685
Au 22.6756 32.1206 24.5583
Au 21.2207 33.0564 22.2329
Pd 25.4673 31.8722 24.4003
Au 24.1014 32.9458 22.1791
Pd 26.8621 32.7109 22.086
Pd 18.3581 10.3381 31.3327
Pd 16.9569 9.39247 29.0525
Pd 15.5451 8.4743 26.7759
Au 14.1186 7.51076 24.4484
Pd 12.7343 6.69063 22.0608
Au 21.1881 10.2983 31.3922
Au 19.7797 9.23158 29.1722
Au 18.3427 8.28636 26.8747
Au 16.9436 7.3496 24.5537
Au 15.5324 6.46767 22.1459
Au 22.6618 9.37106 29.1061
Pd 21.2573 8.33927 26.8696
Au 19.8303 7.33647 24.547
Au 18.4229 6.43131 22.1415
Pd 24.1049 8.51322 26.7603
Au 22.7375 7.40439 24.5315
Pd 21.2991 6.51446 22.1237
Pd 25.5675 7.65072 24.4096
Au 24.1854 6.56982 22.1449
Au 27.0127 6.79858 22.085
Au 18.5264 29.3418 8.14342
Au 17.2002 30.4076 10.5
Au 15.7813 31.3633 12.8554
Pd 14.2762 32.2074 15.2742
Au 12.6722 33.0009 17.6143
Au 21.2792 29.1729 8.12387
Au 19.9744 30.35 10.3585
Au 18.5556 31.4042 12.7215
Au 17.0556 32.3381 15.1307
Au 15.495 33.1547 17.5643
Au 22.7481 30.0894 10.4274
Au 21.3951 31.2625 12.6911
Au 19.9257 32.2763 15.0782
Au 18.3769 33.1624 17.5206
Au 24.1799 31.0209 12.7452
Au 22.7599 32.1521 15.0465
Au 21.2583 33.1074 17.491
Au 25.5661 31.929 15.1186
Au 24.1109 32.99 17.4754
Au 26.9147 32.7886 17.5151
Au 18.5099 10.2519 8.22333
Pd 17.0806 9.33746 10.507
Au 15.6071 8.36096 12.7963
Au 14.1458 7.47214 15.1523
Pd 12.7537 6.68995 17.5151
Au 21.3414 10.285 8.23435
Pd 19.9128 9.27035 10.4275
Au 18.4495 8.23266 12.7119
Au 16.9817 7.30726 15.0914
Pd 15.563 6.53509 17.4519
Pd 22.7585 9.41544 10.5166
Au 21.3638 8.28408 12.7126
Au 19.8923 7.30369 15.088
Au 18.4349 6.47241 17.4372
Au 24.2002 8.49734 12.7992
Au 22.7957 7.39197 15.0784
Pd 21.3095 6.54162 17.4501
Au 25.6244 7.64095 15.1569
Pd 24.2085 6.65 17.4449
Au 27.0132 6.82029 17.4821
Pd 30.5727 16.022 27.8877
Au 30.5522 23.6524 27.9584
Au 29.7922 13.6426 26.4914
Pd 29.6896 25.9738 26.5094
Au 28.9304 11.3131 25.0772
Au 28.8038 28.3288 25.1073
Au 27.9968 8.98734 23.6095
Au 27.8628 30.6257 23.6323
Au 28.3284 14.5126 28.8733
Au 28.2164 25.1073 28.8944
Au 27.4828 12.1629 27.435
Pd 27.3422 27.4062 27.4555
Au 26.5499 9.79895 25.9893
Pd 26.4281 29.7436 25.9702
Au 25.9954 13.0553 29.7795
Pd 25.8696 26.4689 29.761
Au 25.09 10.6758 28.3266
Au 25.0282 28.8612 28.3391
Au 23.6016 11.619 30.6408
Au 23.5481 27.9153 30.6354
Au 30.6015 15.9672 11.6656
Au 30.5985 23.6041 11.6152
Au 29.7938 13.6182 13.0636
Au 29.7455 26.0117 13.0657
Au 28.9346 11.2821 14.5164
Pd 28.8257 28.2984 14.5599
Au 27.9982 8.99273 15.9922
Au 27.9211 30.6004 15.9759
Au 28.3017 14.493 10.7385
Au 28.2911 25.0661 10.6559
Pd 27.4323 12.168 12.1711
Pd 27.4107 27.4107 12.1473
Au 26.5689 9.84529 13.5894
Au 26.5412 29.7159 13.5924
Pd 25.979 13.0762 9.87715
Au 25.9737 26.4928 9.75351
Pd 25.1077 10.7565 11.3183
Au 25.1137 28.8236 11.237
Au 23.7104 11.6253 9.01976
Au 23.6245 27.8811 8.89745
Au 8.93203 15.8688 27.9809
Au 8.87454 23.4647 27.9651
Au 9.80278 13.4646 26.5901
Au 9.73549 25.8668 26.6182
Au 10.7434 11.0862 25.12
Au 10.6674 28.2753 25.2484
Au 11.7058 8.80611 23.6334
Au 11.6347 30.6878 23.7445
Au 11.2499 14.4019 28.9323
Au 11.1693 24.9525 28.9257
Au 12.1582 11.9898 27.4979
Au 12.0496 27.386 27.5221
Au 13.1148 9.68166 26.0071
Pd 13.0191 29.7492 26.0115
Au 13.6301 12.9833 29.791
Au 13.5007 26.4392 29.823
Pd 14.579 10.663 28.3086
Au 14.419 28.8679 28.3511
Au 15.9594 11.5935 30.5905
Au 15.8898 27.906 30.6516
Au 8.96073 15.685 11.6077
Pd 12.0952 25.0426 9.68901
Au 9.83531 13.3576 12.9916
Au 10.6501 26.0199 11.8434
Pd 10.7823 11.0886 14.4902
Au 11.41 28.3722 13.3067
Au 11.7269 8.79345 15.9539
Au 11.7895 31.0307 15.9504
Pd 11.3151 14.1821 10.7458
Pd 14.3066 26.4039 9.11627
Au 12.2159 11.8857 12.1133
Au 12.8326 27.5046 11.1027
Au 13.1584 9.63636 13.5745
Au 13.3222 30.2638 13.5391
Au 13.7077 12.7856 9.80545
Au 15.1978 24.8839 7.13531
Pd 14.6505 10.5621 11.2897
Pd 14.8226 29.2899 11.2528
Pd 16.1372 11.5284 8.99544
Au 16.1781 28.271 8.94337
