923
Atoms. Timestep: 21011
Au 10.9295 9.00824 18.2287
Au 12.1433 23.8457 27.3934
Au 15.8829 16.6391 26.5845
Au 11.9332 7.35634 27.1851
Au 27.6771 9.33247 15.144
Au 23.1021 12.9153 28.8467
Au 17.9042 25.9667 15.5286
Au 15.9001 10.4133 21.3556
Au 13.2219 23.5045 11.0184
Au 29.1929 21.2698 20.2149
Au 33.5426 18.3825 19.1572
Au 5.42786 19.1394 25.7566
Au 20.7069 23.9819 21.0659
Pd 13.4044 7.22519 18.2729
Au 20.2511 17.1472 8.74746
Au 18.4975 16.8108 27.7175
Pd 15.0856 12.0574 23.7697
Au 21.9634 28.8243 17.2063
Au 23.1678 26.7165 27.677
Pd 15.4466 20.8025 28.273
Au 7.42964 25.653 18.3289
Au 31.9076 22.242 19.0469
Pd 15.7814 31.2068 11.8612
Au 14.8264 13.193 30.3303
Au 25.646 29.505 19.8503
Au 20.0247 29.5674 11.7059
Au 14.0555 10.6705 31.1824
Au 25.7681 22.2782 21.8893
Au 27.2081 20.5364 27.5308
Au 10.3024 12.0974 22.0927
Au 16.0065 29.8074 9.57551
Au 11.1507 28.1202 9.85492
Au 13.2757 17.4006 33.129
Au 6.39409 16.7698 26.5964
Au 10.7222 11.4417 24.7103
Au 26.2961 20.1811 23.5357
Au 30.0703 25.6023 13.2541
Pd 10.2209 17.5521 21.3118
Au 26.3113 27.2495 30.5535
Pd 29.1269 12.6774 18.8208
Au 20.3863 9.44252 22.6815
Au 8.11492 24.4399 20.7202
Au 31.39 25.8561 24.7839
Au 8.46547 18.9102 19.5555
Au 8.88985 9.89418 23.3073
Au 15.7542 22.3625 15.6418
Au 27.1664 13.5073 29.868
Au 7.43019 16.1989 15.0172
Au 14.8282 10.6962 26.4715
Au 31.3209 28.7356 16.1239
Au 12.8726 16.5641 20.7032
Au 23.2186 16.2828 12.7304
Au 12.3563 24.7405 14.8146
Au 21.3413 12.2362 26.7531
Au 16.836 27.2191 29.4892
Au 21.8417 13.0074 17.8745
Au 10.2888 20.2634 26.4238
Au 24.6956 31.9681 13.5565
Au 22.3119 25.8057 13.2745
Au 18.1965 16.1315 7.36016
Au 9.45857 23.71 18.3876
Au 20.4841 16.2961 20.5537
Pd 11.1444 15.1698 18.939
Au 27.4986 29.0216 25.0306
Au 12.1388 9.9474 13.8297
Pd 26.0949 14.8794 19.6626
Au 7.97254 19.4696 11.5772
Au 13.5503 31.1811 13.3753
Au 20.4652 27.1339 15.6228
Au 14.4537 9.67313 11.9949
Au 25.1389 29.5992 9.76387
Pd 20.5472 16.0603 29.6505
Pd 26.0027 28.9453 14.9709
Pd 14.7994 19.3367 14.4995
Au 23.9502 25.0028 7.61211
Pd 27.7678 16.4593 21.4194
Pd 19.2096 19.5979 14.0865
Pd 15.3261 17.5348 19.3648
Au 22.9198 17.7941 33.9966
Pd 25.1488 20.5322 17.8909
Au 14.2763 17.6395 24.4887
Pd 12.6186 8.55937 16.0974
Pd 19.8336 30.5486 23.4301
Au 28.1765 20.7462 10.8652
Au 26.9418 13.9472 10.485
Au 29.5665 23.4718 15.0529
Au 31.4934 11.9583 17.5328
Au 25.6716 10.2886 21.3315
Au 17.702 19.9725 22.3894
Au 16.5569 29.918 17.4323
Au 10.8174 17.8344 18.5339
Au 32.0792 14.0432 22.1355
Pd 19.1182 19.8833 20.0603
Au 28.7759 23.8515 31.039
Au 31.334 11.8121 12.228
Pd 12.9032 28.804 18.0548
Au 18.1493 12.5784 33.1946
Au 15.4954 21.901 10.6547
Au 20.4792 20.2807 6.78541
Au 14.294 31.355 18.1271
Au 13.0104 12.5425 25.8378
Pd 27.8509 26.8718 14.3155
Au 25.1326 19.9398 10.1492
Pd 13.9518 18.6354 27.2603
Au 30.3937 14.6645 17.3587
Au 11.1487 27.6432 25.3214
Au 25.0469 12.0259 30.6095
Au 33.0982 21.3863 25.7401
Au 14.8994 20.3822 17.4555
Au 19.5435 20.1694 17.0339
Pd 20.3935 17.4041 32.0913
Au 21.0545 12.7449 33.1914
Au 7.77279 11.5613 21.1204
Au 22.3511 18.445 7.41579
Au 20.2107 10.3931 15.7849
Au 17.6606 33.4889 14.6793
Pd 19.2698 11.1054 13.1493
Au 14.6507 10.0513 14.8966
Au 18.3481 18.8231 7.18883
Au 13.3702 16.8871 7.49266
Au 20.9629 22.4229 16.2479
Au 12.646 19.7128 24.8673
Au 28.2615 25.4156 19.1004
Au 6.48788 18.3054 13.6078
Au 11.9716 16.1857 9.71263
Au 23.2242 33.2667 17.898
Au 12.9571 8.9104 29.2518
Au 19.6343 11.7017 31.0693
Au 23.474 20.3013 23.0005
Pd 22.2368 18.8551 24.9968
Au 6.02803 17.9217 18.959
Au 24.4899 12.4228 13.9352
Au 11.9077 23.7627 8.63659
Pd 18.259 25.6909 11.3019
Au 22.4791 13.3461 9.26654
Au 15.5371 17.0615 31.7092
Au 19.0601 22.5185 31.3223
Au 11.0557 28.7638 20.3934
Au 13.5793 28.2987 8.71685
Au 8.72638 19.9981 22.0734
Au 14.157 8.51725 22.3875
Au 11.4707 26.4277 22.6535
Pd 29.143 22.5201 17.7637
Pd 29.7357 19.4419 31.1856
Au 17.9973 6.83718 15.5692
Pd 15.6327 16.8106 34.4632
Au 24.9751 22.5852 6.63014
Au 9.45883 12.4476 11.0747
Pd 20.0025 19.7077 9.38236
Au 15.1037 23.0535 21.8317
Au 32.6645 26.5813 17.0657
Au 27.0151 16.3171 9.2931
Pd 15.616 19.2296 11.1292
Au 17.2405 29.0398 12.2353
Au 27.4918 13.3071 13.8546
Au 10.5886 20.4364 15.1264
Au 21.1679 17.6834 27.3372
Au 18.3748 13.6424 13.1353
Au 24.4179 22.6421 9.30713
Au 32.5299 27.5054 20.5317
Au 33.1344 13.308 13.3884
Au 9.00796 18.2004 27.5871
Au 17.0158 11.8995 25.605
Au 9.7759 25.2276 26.4903
Au 13.9761 26.9611 6.38677
Au 5.86226 15.7531 20.4731
Au 17.4896 21.7567 17.9966
Au 31.6757 23.7208 26.4596
Pd 23.415 26.3445 17.7645
Au 26.1235 17.7348 19.3677
Au 29.8815 17.3473 24.3882
Au 17.1157 7.49824 17.9359
Au 16.8339 7.76602 22.4954
Pd 21.5686 15.5913 10.6695
Au 8.47329 16.0479 19.6105
Au 28.6768 8.06843 17.5675
Pd 12.6636 18.8599 22.2192
Au 33.4553 23.616 17.0993
Au 25.0531 31.6837 16.4534
Pd 13.5343 11.5123 28.6235
Au 22.9179 23.7046 5.40734
Au 13.2081 9.33056 19.8711
Au 33.3433 18.8019 24.7201
Pd 15.2269 25.1067 15.1583
Au 23.4153 26.3572 25.0876
Pd 13.3681 11.3523 21.7332
Au 10.8761 20.0174 20.3291
Pd 12.1215 13.7497 29.3315
Au 13.4589 7.65853 24.9617
Au 23.8736 10.09 12.5513
Au 33.4533 22.7211 14.4076
Pd 22.982 11.236 15.9364
Pd 18.2341 19.0382 34.2456
Pd 16.3352 11.812 28.4276
Pd 24.9676 19.5322 28.6073
Au 17.0274 20.4262 8.87218
Au 26.4588 13.0329 25.6339
Pd 26.9965 17.3754 24.0494
Pd 10.7665 22.7011 25.3316
Au 26.0575 26.8711 24.0629
Au 12.8319 13.7242 20.6021
Au 22.0864 26.3837 22.6881
Au 19.6193 22.0674 12.9777
Au 18.3015 31.1345 10.3371
Au 17.5795 17.7213 9.80205
Pd 18.5308 20.7564 24.8763
Au 19.3112 22.1815 8.37788
Au 15.1763 22.4925 19.1226
Au 18.3679 9.78193 29.4644
Au 24.8032 19.7808 25.6536
Au 23.45 21.5261 11.7033
Au 31.8371 17.0164 10.6455
Au 29.1151 13.1237 11.6865
Pd 22.0415 14.182 31.0278
Pd 30.5988 17.2092 21.6053
Au 12.3749 21.5531 18.3449
Au 15.6678 8.05378 20.008
Au 11.5297 17.3826 26.1884
Au 12.9534 19.3191 6.44578
Au 23.5517 20.4735 34.5819
Au 19.3082 22.5657 22.9598
Au 6.9242 23.4953 13.5114
Au 20.786 20.9268 29.8001
Au 9.28147 15.4056 16.9534
Au 16.8174 33.2952 19.5495
Pd 24.5934 27.2301 21.5279
Au 13.6544 29.6178 11.0302
Au 27.2715 11.8296 23.1686
Au 24.9541 7.79322 21.9478
Au 16.4742 15.843 11.9279
Au 19.5417 17.4013 18.2351
Au 19.7881 20.0734 32.1729
Au 22.9407 25.3844 20.3105
Au 15.8197 12.5144 8.3348
Au 26.6181 24.4197 7.70671
Au 22.8399 32.8146 15.3013
Au 19.8466 27.1444 8.03067
Pd 13.3711 24.3196 6.39886
Au 30.8796 21.4854 13.6088
Au 18.1553 9.01735 11.7566
Au 14.9085 9.35131 17.5921
Au 23.1712 15.0193 26.181
Au 10.3586 28.8967 23.0563
Au 16.5862 14.9908 9.26338
Au 17.4138 24.6664 25.5052
Au 6.65266 13.4821 19.4998
Au 14.058 29.7588 15.8381
Au 16.9191 13.2817 18.2816
Pd 14.9102 24.5672 24.252
Au 25.1498 18.4314 31.203
Au 25.3247 16.8488 28.9964
Pd 12.1961 27.8111 12.3197
Au 9.48009 27.2404 11.7908
Pd 20.1028 14.3943 8.55145
Au 23.8915 10.3787 28.7642
Au 6.22451 19.7198 23.2347
Pd 20.7494 26.4828 18.2767
Au 17.3267 9.40675 15.93
Au 13.094 19.9557 32.2864
Au 30.1295 23.8255 28.7397
Au 29.0285 9.93829 23.4841
Au 26.1037 7.9447 16.8516
Au 13.917 12.1506 12.9377
Au 8.98802 27.0596 21.4702
Pd 9.46521 25.365 16.2914
Au 25.7546 17.2472 14.0003
Au 28.4357 13.1548 27.51
Au 11.7363 22.4296 13.381
Au 19.708 14.8671 22.8015
Au 12.9598 21.24 27.0297
Au 32.9543 18.5621 12.5249
Au 22.1206 28.3256 29.675
Au 8.38487 24.719 11.5728
Au 18.2939 20.1748 11.3807
Pd 31.5409 21.9584 16.2408
Au 29.2324 20.5598 15.7241
Pd 17.4488 22.0901 26.9709
Au 21.8833 22.1121 32.9477
Au 32.9972 21.1918 12.0524
Au 30.59 29.3397 20.6206
Au 32.9225 16.133 20.6077
Au 14.0292 11.9359 10.1997
Pd 10.2743 24.4336 29.1
Pd 21.2803 16.3623 24.5818
Au 31.1785 14.6109 25.1466
Pd 15.4844 20.1488 30.8956
Au 18.6525 26.001 27.8182
Pd 23.8234 8.61002 19.583
Au 13.2436 19.0991 19.4356
Au 29.5092 21.8551 26.9754
Au 20.5309 24.4369 11.8242
Au 15.5941 28.0605 19.1776
Au 17.382 26.7083 21.0698
Pd 30.5191 20.1087 18.0683
Au 22.8244 14.1483 15.3824
Pd 11.3808 21.3278 7.54991
Au 7.08459 14.6543 24.7365
Pd 26.178 19.6614 12.6115
Pd 24.3002 23.0709 34.0191
Au 16.6957 14.3728 34.6562
Au 21.9691 31.3705 12.9221
Au 30.3248 28.2054 13.6972
Pd 29.3626 17.923 16.7243
Au 29.53 20.7195 8.61079
Pd 24.5265 22.3971 24.4
Pd 21.1705 19.9514 11.9079
Au 23.8833 31.6478 10.996
Au 32.8775 15.8901 13.1512
Au 15.5187 20.2445 6.48134
Au 23.7189 8.56001 24.3143
Pd 15.0599 14.9488 19.5068
Au 25.7104 24.6139 25.8615
Au 15.2792 33.2668 13.5524
Au 16.4323 8.17231 13.6281
Au 30.829 22.0267 10.546
Au 10.7013 20.3925 31.004
Au 18.2879 32.5082 24.1551
Pd 17.6362 18.7635 31.5766
Pd 30.8612 24.4877 17.5376
Pd 11.5107 18.7563 8.62537
Pd 10.9072 21.8453 28.6721
Au 16.6147 22.7579 30.1144
Au 15.9048 31.7957 24.9188
Au 26.2253 11.5855 28.0779
Au 27.6512 15.7313 28.2531
Pd 30.0212 19.6516 28.5659
Pd 14.393 15.2623 22.6138
Pd 21.6721 23.9267 23.8282
Au 15.9154 17.7022 7.50201
Pd 17.207 9.44519 26.9421
Au 24.6889 28.6281 28.898
Au 18.5134 31.2293 13.2457
Au 16.361 24.7209 28.1952
Au 31.5547 14.3618 11.3925
Au 26.4532 31.0835 11.6802
Au 27.9753 26.2336 9.23662
Au 29.4029 16.931 30.0353
Au 28.5028 15.3456 25.671
Pd 15.3778 25.1303 30.6842
Pd 24.9828 12.2228 11.1507
Au 13.2014 27.2286 15.1858
Pd 22.6197 20.186 27.3542
Au 31.9516 21.6301 28.2303
Au 32.2386 18.6212 16.8313
Au 27.151 24.2469 23.5675
Au 18.4177 15.924 25.0724
Au 17.5669 14.2401 27.2537
Au 16.2774 18.1917 29.0896
Au 23.3443 30.0995 15.0917
Au 28.7987 29.4863 15.4588
Au 10.1179 25.5345 9.68665
Au 28.5281 21.6783 22.9419
Au 22.9192 15.6946 28.709
Au 12.5343 13.4157 23.3289
Pd 18.0348 28.7461 14.8896
Au 19.4787 7.04861 22.4175
Pd 17.0592 18.3886 13.1631
Pd 8.32998 17.916 17.1026
Au 26.53 19.6656 15.4338
Au 18.0151 27.1104 6.22596
Pd 13.2254 21.3749 21.0134
Pd 24.4083 24.5015 14.9676
Pd 6.91054 14.263 27.4336
Au 24.8251 22.0423 27.2295
Au 24.4784 24.8619 23.0431
Au 26.5967 17.2389 16.6901
Au 13.2313 21.758 5.63316
Au 7.25441 22.3698 22.3804
Au 9.29567 14.0443 28.744
Au 27.005 15.9633 30.9932
Au 9.87145 15.7073 14.0514
Pd 18.1874 11.9745 20.6597
Au 14.9362 20.3474 22.928
Au 27.1278 30.323 17.5097
Au 27.7202 19.953 17.9229
Pd 9.3803 18.3879 13.614
Au 12.7463 18.5772 11.0056
Au 11.4655 9.47413 22.2033
Pd 30.3077 16.6594 12.8149
Au 20.9657 19.7862 34.5268
Pd 17.5598 13.2008 23.0807
Au 24.5378 13.0186 17.4302
Pd 7.91422 13.1698 17.2011
Au 20.2631 13.121 15.4835
Au 22.5397 15.8345 8.14003
Au 11.8748 16.4163 23.4669
Au 24.8647 19.965 7.42056
Pd 13.1405 10.2589 24.2037
Au 9.16419 26.2278 24.0456
Au 15.2162 7.27852 15.9537
Pd 23.3597 27.3659 15.231
Pd 13.0493 28.4978 22.4397
Au 30.4641 14.0315 13.9498
Pd 25.2894 13.0039 21.6138
Au 33.4839 23.2559 21.2044
Au 20.3979 30.1851 28.7125
Pd 12.2221 18.8549 13.7877
Au 7.96005 23.8367 24.8952
Au 8.25963 13.8765 12.9711
Au 33.3597 20.1762 14.8151
Au 17.7924 17.4823 20.5638
Au 23.9048 19.6193 15.5901
Au 19.564 10.5089 25.2847
Au 16.555 10.6693 10.4114
Au 28.5579 21.5885 29.6703
Au 26.8399 21.6272 8.44382
Au 23.3829 14.1952 19.8765
Au 33.5078 21.0118 23.0504
Au 21.0383 22.2306 10.4666
Au 21.0987 10.5551 28.9906
Pd 20.8795 25.5677 25.9775
Au 13.3611 16.096 28.0221
Au 22.5749 29.3454 10.4046
Au 21.0529 7.9888 24.8508
Au 31.304 16.3128 15.436
Au 10.7398 22.6627 20.5718
Au 24.2778 24.1757 12.2612
Pd 31.0708 17.0815 18.789
Au 30.3118 14.8003 20.2352
Au 14.1144 32.5175 20.5098
Au 24.6914 20.9635 32.2016
Au 30.0729 24.1602 23.0626
Au 8.83499 22.8308 27.2915
Au 30.2454 25.0737 10.567
Au 21.8968 9.96802 18.0457
Au 8.87648 10.9357 18.3764
Pd 23.8428 17.5913 26.87
Au 8.88606 11.4324 29.0493
Pd 16.5719 22.3325 24.0828
Pd 22.451 15.2618 22.296
Au 26.0278 31.7181 21.7858
Au 28.9129 18.4453 19.7552
Pd 11.3776 17.7021 31.2812
Au 12.5109 29.9481 24.5678
Pd 19.2224 13.3155 25.2315
Au 30.4863 27.0751 18.6109
Au 8.93299 18.2942 30.3419
Au 31.9861 16.9499 26.2223
Pd 22.8544 29.3138 26.6411
Pd 7.28393 17.6684 21.6279
Pd 19.4991 14.5968 18.1031
Pd 16.0194 14.4469 24.8898
Au 18.3469 8.10911 24.751
Au 9.75596 23.8047 22.9003
Au 16.1629 27.3351 26.6457
Au 9.7816 20.5044 17.6863
Au 30.8903 21.9312 30.702
Au 14.1339 22.2094 8.11911
Au 27.1267 22.1848 25.3806
Au 11.8676 16.4045 12.5219
Au 19.9308 24.3894 32.9929
Au 23.3452 30.777 18.7685
Pd 17.855 13.5133 29.8549
Pd 16.0253 27.689 7.91798
Au 18.4119 9.07922 20.7163
Au 20.5061 15.0208 26.9252
Pd 24.3809 14.0029 24.009
Au 23.8207 26.9988 11.0226
Au 27.9888 13.6234 21.1096
Au 13.4392 22.2523 24.3268
Au 8.96685 15.796 26.3597
Au 11.3114 14.5194 26.789
Au 9.8186 15.1077 11.0814
Pd 10.4618 26.9202 14.2501
Au 27.3764 20.5681 31.9663
Au 28.479 15.6246 15.3293
Au 14.2273 19.4939 8.79747
Au 27.9241 27.6581 17.235
Pd 31.2511 21.9404 21.8568
Au 8.45407 22.4884 16.0313
Pd 18.1712 28.9695 27.7134
Au 27.06 31.332 14.5258
Pd 31.6132 11.6937 14.8688
Au 14.0011 25.8613 12.7896
Au 19.3773 8.46244 14.0607
Au 17.8386 26.7941 18.2135
Au 31.1341 19.5176 23.2211
Pd 22.6264 24.7152 10.0392
Au 11.8658 26.347 7.77447
Au 5.91538 21.9483 15.6208
Au 25.8038 26.8399 19.0236
Au 14.6425 25.2085 8.56982
Au 19.5101 25.5059 23.4199
Au 8.72318 12.7342 26.3463
Au 23.8843 24.0988 28.7657
Au 20.0344 12.1287 22.7955
Pd 22.0139 24.9447 15.9724
Au 11.2882 7.3761 20.3104
Au 26.6934 22.2924 16.2318
Pd 19.4136 24.4166 17.1939
Au 12.3531 21.1336 10.0012
Au 29.1844 12.5186 15.9973
Au 9.53557 27.1415 18.7265
Pd 15.128 14.9001 16.609
Pd 22.2222 20.7313 18.015
Au 12.0068 24.9958 24.9184
Au 22.1322 28.4538 13.0181
Au 18.2157 12.7268 9.65425
Au 24.679 29.3301 12.5689
Au 9.585 24.0775 13.9954
Au 28.1222 28.235 19.9406
Au 24.5815 15.6864 17.6755
Au 15.6298 9.4352 29.3317
Au 13.4706 28.5405 26.7588
Au 22.2191 8.9672 14.4911
Au 25.2348 30.5939 24.4653
Pd 14.1657 23.1938 29.0615
Au 7.67005 16.2642 29.026
Au 13.3315 15.6098 30.7909
Pd 17.0324 15.8676 22.7082
Au 32.6648 13.9873 15.9462
Au 13.0915 24.0708 19.7084
Pd 10.6965 17.5837 15.811
Au 19.859 24.5403 14.3965
Au 16.9541 18.2214 24.3517
Pd 11.3729 11.3578 19.7465
Au 7.73868 14.4084 21.9339
Au 21.0291 26.366 31.4441
Au 15.7622 30.0491 27.0928
Pd 15.6755 25.1134 19.7836
Pd 23.641 32.8219 20.5268
Au 29.9776 28.1497 25.4887
Au 17.3286 18.999 18.2384
Au 6.5672 18.7242 28.488
Au 15.6368 13.1876 21.3222
Pd 28.3313 25.9339 29.0669
Au 24.7357 28.8508 17.3363
Au 16.6824 23.1465 8.29493
Au 22.4283 19.5143 31.9671
Au 25.1593 24.2706 17.6983
Pd 18.8152 28.1521 22.8689
Au 30.1857 9.95355 18.9019
Au 28.5445 18.97 22.3754
Pd 22.3563 11.1953 10.7313
Pd 13.697 18.1802 30.0308
Pd 18.5477 31.4149 18.676
Au 24.9314 9.48855 14.9267
Au 25.3104 26.6173 13.3183
Au 15.4674 17.7966 16.6667
Au 9.8385 29.7394 18.1018
Pd 25.7765 15.7076 25.8193
Pd 26.7101 20.128 20.5653
Au 16.5996 26.6176 13.2527
Au 16.0568 25.347 6.24498
Au 23.1149 22.8634 21.8994
Au 22.8417 21.0599 6.06055
Au 9.58498 7.50741 22.4461
Pd 16.238 30.7978 20.1526
Au 26.6281 8.6819 19.3682
Pd 25.2463 28.1989 26.2527
Au 28.0949 23.6911 21.1251
Au 21.8167 11.6898 13.5127
Au 25.7481 26.12 28.1323
Au 6.06169 21.838 24.8157
Au 25.7842 32.1533 19.0714
Au 20.516 15.9075 15.8231
Au 20.5622 29.8603 14.8068
Pd 21.9476 15.9491 18.1238
Au 14.5429 23.1603 13.3576
Au 8.63326 20.6023 29.1166
Pd 24.0333 16.9765 24.165
Pd 13.2427 21.3843 15.3203
Au 10.1233 13.1834 31.1384
Pd 11.1698 21.2636 22.9462
Au 13.2331 13.5993 17.9014
Au 22.2543 23.0302 13.7884
Au 25.2806 25.5044 32.6572
Au 27.8224 15.6812 12.5859
Au 19.69 23.1364 25.7489
Au 7.7407 22.1202 10.9371
Pd 21.1933 17.7274 13.8255
Au 10.508 14.8775 21.6467
Au 30.6117 24.1808 20.2777
Au 29.9141 26.5952 21.2915
Au 31.9204 23.7601 12.421
Au 17.7684 12.0081 15.7006
Au 18.4675 25.2412 30.6067
Au 27.209 14.0079 17.271
Au 21.6788 20.4911 14.5333
Pd 20.4127 13.3921 29.0999
Au 32.2146 19.6929 30.0933
Au 11.955 22.9622 30.8858
Au 26.3607 12.0935 19.2987
Au 20.7957 30.1862 19.6814
Au 20.933 14.8036 13.3255
Au 14.4299 31.0469 22.7145
Pd 12.5916 19.1838 16.7416
Au 18.8231 32.101 21.2427
Au 6.20441 20.1513 20.589
Au 11.7941 11.0829 11.4493
Au 29.6588 14.9984 22.9724
Au 31.0201 19.568 26.0311
Au 11.1157 22.9048 16.3234
Au 30.3102 26.1001 27.2316
Au 25.9493 21.8945 29.8502
Au 9.37118 9.45576 20.5382
Au 33.8133 20.7635 20.3435
Au 15.412 20.3023 25.5681
Pd 13.7062 20.7334 12.4447
Pd 24.0878 23.4491 31.382
Au 21.4722 21.1117 20.7938
Au 22.3939 30.7579 24.3367
Au 26.3625 11.7367 15.7548
Pd 30.655 21.8994 24.5741
Au 25.2773 18.2609 22.0313
Au 19.3055 21.9521 34.0697
Au 9.34411 15.7188 31.1128
Pd 23.5793 11.4564 19.7014
Pd 23.771 28.5476 23.7459
Au 32.0195 19.6698 9.90803
Au 12.516 23.8876 22.3977
Au 9.41269 29.6223 15.4318
Pd 23.3267 21.3727 29.7881
Pd 25.1198 9.86345 26.2586
Au 14.5131 25.9802 22.0315
Au 23.9584 12.2508 26.3069
Au 19.4407 27.8476 29.8741
Au 12.0656 6.80222 22.88
Au 10.3712 22.8258 11.0691
Pd 15.1284 12.1046 16.534
Au 27.2941 28.3758 28.1225
Pd 27.1794 26.375 21.638
Au 21.9146 15.3105 33.5303
Au 17.4787 19.232 26.9556
Pd 22.6333 20.5253 9.02317
Au 13.233 16.5652 17.8968
Au 20.6779 27.9247 27.3469
Au 10.0524 14.1564 24.3175
Au 21.4376 18.4312 16.4935
Pd 22.9462 13.6177 11.9855
Au 23.0822 23.9289 26.123
Pd 13.8217 14.6488 11.3684
Au 27.8344 29.2207 12.9105
Pd 22.5603 27.1643 8.57024
Pd 10.981 27.8595 16.6032
Pd 29.9703 12.3064 22.4549
Au 29.1225 23.1923 12.259
Au 26.3076 24.587 30.2986
Au 11.4187 11.0497 30.2519
Pd 13.6305 14.7076 14.0248
Au 15.8493 27.7026 15.9988
Au 15.8447 20.1101 20.3004
Pd 10.7632 20.1986 12.0396
Pd 22.5584 18.5084 29.4574
Au 10.7166 25.3496 20.3286
Au 11.4221 19.021 28.6651
Pd 11.8861 30.9027 21.9358
Au 6.27842 20.9207 13.1187
Au 16.33 32.9178 22.1789
Au 14.5054 22.5574 31.7998
Au 22.6126 24.9314 33.0292
Pd 19.1417 33.5247 17.215
Au 8.83069 16.4407 23.5036
Pd 27.3694 23.5632 27.9163
Au 17.7959 29.6557 25.1004
Au 7.89853 26.2251 13.911
Au 13.5033 15.2305 25.3431
Pd 29.0753 24.2169 25.6563
Au 20.2786 30.4236 26.0991
Au 23.9188 19.811 20.27
Au 11.7511 25.4706 17.689
Au 21.1012 25.5076 28.8551
Au 17.0506 21.28 32.771
Au 18.3522 29.1102 20.2706
Au 23.8057 13.3942 32.7974
Pd 10.4112 9.25539 28.5193
Au 24.4185 15.0465 9.97818
Au 29.2508 27.5002 11.337
Au 29.408 15.6095 10.3307
Au 20.3514 29.5771 8.9203
Au 21.4148 28.9569 22.0299
Pd 26.311 29.0972 22.4527
Au 27.7777 26.5136 26.3104
Pd 19.9253 22.2687 18.9395
Pd 13.7779 29.79 20.3163
Pd 15.7617 9.19572 24.5323
Pd 23.0082 9.80848 21.888
Au 25.3583 27.1745 8.56877
Pd 17.3006 23.9107 13.3901
Au 21.2779 25.3026 6.75327
Au 7.81977 19.8952 15.2808
Pd 21.9926 23.8583 18.3772
Au 15.4381 27.3577 10.7094
Au 14.6411 8.12485 27.2329
Au 10.3755 18.7327 23.8868
Au 10.7728 16.3499 28.9353
Au 22.1506 17.9939 22.2758
Au 6.78868 20.3541 17.7784
Au 9.82859 11.2778 13.391
Pd 8.88729 21.554 13.3116
Pd 18.2819 17.6102 15.8649
Au 28.3358 23.4608 9.63275
Au 32.0394 24.8265 15.0481
Au 16.1665 13.1563 11.4445
Au 24.6845 17.5205 8.54857
Au 11.7232 13.4258 10.0276
Au 6.6895 23.0858 18.1214
Pd 17.0615 19.9729 15.6796
Au 33.2935 16.1792 17.4769
Pd 29.3113 17.6117 27.1117
Au 13.8721 14.3938 8.64461
Au 19.3236 9.02472 18.1461
Au 25.7466 26.4847 16.1485
Au 18.8682 15.2735 10.8099
Au 28.4436 19.6575 25.176
Au 18.0157 16.5382 33.1906
Au 17.7776 10.4362 23.2204
Au 32.6017 14.0339 18.9338
Pd 26.5187 10.8902 13.0425
Au 21.5195 31.9211 21.8772
Au 23.4115 16.8306 15.448
Au 8.09838 27.5743 16.3623
Pd 11.7701 26.5521 27.7222
Pd 15.647 28.5326 21.8618
Au 21.1204 8.18281 20.1773
Pd 17.1828 16.0731 18.0776
Au 12.2773 9.8315 26.6893
Au 26.6399 23.1228 32.5751
Au 18.0172 29.444 7.70979
Pd 14.7331 28.6695 13.3452
Au 7.35628 20.648 26.7952
Pd 24.6911 14.667 30.5943
Au 19.6516 10.6055 10.2895
Au 6.60121 15.6271 17.6387
Au 20.4104 12.9992 11.236
Au 17.0385 10.4897 18.6392
Au 6.02339 17.0071 23.8993
Au 22.4573 11.506 31.1624
Pd 23.7893 18.238 17.8958
Pd 27.6612 10.6955 25.78
Pd 13.7448 23.5739 17.0033
Au 19.8001 8.77864 27.2946
Pd 26.512 27.7599 11.0538
Au 23.5721 19.0084 12.9082
Au 24.9773 16.1093 32.9535
Au 23.9747 22.437 19.4129
Pd 23.6691 22.3595 16.41
Au 33.792 17.4838 15.0225
Pd 18.7378 16.3311 13.5662
Au 13.0447 26.9235 19.9977
Au 30.3499 15.2022 27.7678
Pd 21.167 28.162 24.6492
Au 18.6117 24.3899 6.62772
Au 20.2796 32.8774 14.7506
Pd 25.5121 24.5692 20.4608
Au 13.7139 6.42608 20.7965
Pd 13.3757 17.0064 15.2281
Au 29.215 12.7488 24.9403
Au 20.2898 17.2017 34.7821
Au 16.4362 32.6935 16.977
Pd 19.6527 18.5476 29.5456
Au 15.0124 22.9946 26.4464
Au 25.1458 15.6667 22.0318
Au 32.3267 29.0581 18.4776
Au 26.774 22.4847 19.0614
Au 26.2132 21.1996 34.4108
Au 21.1771 31.7035 10.2769
Pd 29.683 29.7024 18.1035
Au 19.2714 28.9682 17.5012
Au 14.124 25.5577 26.8469
Au 27.9943 18.0132 11.2422
Au 26.2784 22.5157 11.4785
Au 10.019 17.8571 10.8468
Pd 18.145 22.9415 10.7769
Au 18.869 11.6897 27.692
Au 22.6759 12.5229 22.0812
Au 8.68208 21.2506 24.4297
Au 32.391 16.437 23.4798
Pd 13.9942 32.4422 15.7225
Au 17.4717 25.6854 8.76555
Pd 20.0076 24.672 9.14479
Au 17.0691 23.9542 32.5646
Au 27.48 18.7146 29.6073
Pd 27.0545 14.5884 23.5095
Au 5.84871 18.1463 16.2335
Au 10.4007 10.5156 15.9717
Au 15.2797 12.3849 33.0572
Au 11.7166 30.905 16.5679
Au 11.2632 25.1921 12.2097
Au 20.6245 13.6039 20.4081
Pd 14.3903 17.3129 12.7113
Au 18.7322 27.2011 25.4411
Pd 12.7593 25.2482 29.8134
Pd 8.07589 12.3571 23.7399
Pd 31.3376 27.9485 23.0681
Pd 9.67232 13.2326 15.1255
Au 11.7489 29.4612 14.2993
Pd 25.5545 14.7838 15.2706
Au 13.753 7.75775 13.7613
Au 18.4186 22.3561 15.4201
Au 19.3841 11.8522 18.0795
Au 11.4771 15.2453 32.6224
Au 15.1937 29.2082 24.5433
Au 11.3639 13.5489 12.832
Pd 12.7357 10.8827 17.4369
Au 24.7209 11.2362 23.821
Au 33.4078 18.4756 21.9402
Pd 12.8954 26.1452 10.2783
Au 21.5979 22.6938 27.8767
Pd 9.64705 20.4978 9.6243
Pd 18.214 28.0867 9.98927
Au 17.9197 16.5853 35.7872
Au 20.809 10.8914 20.3351
Au 27.8209 24.8084 16.5688
Au 17.3892 33.3159 11.9343
Au 31.0242 18.8401 14.46
Pd 10.9774 11.9346 27.619
Au 30.3212 19.3749 11.8618
Au 15.7934 15.489 29.2105
Au 16.5853 21.1955 13.2004
Au 19.9822 33.1259 12.0867
Au 15.8184 24.5893 11.049
Au 30.112 9.89795 16.1731
Au 23.9184 32.5486 23.1684
Au 27.8282 10.5293 17.6635
Au 26.4265 9.10768 23.9381
Au 27.7246 17.9992 32.3859
Au 20.1186 26.7695 20.7972
Au 24.9621 21.803 14.0136
Au 6.81356 24.7202 15.8984
Au 22.2357 7.27723 22.4363
Au 19.7738 17.7475 11.4948
Au 22.0157 22.9409 7.91191
Au 15.4773 19.2186 33.4566
Pd 29.9952 26.4507 15.9006
Au 16.1467 30.9213 14.6202
Au 12.6855 12.9067 31.981
Pd 19.5803 18.4004 25.3765
Au 16.5798 14.5089 31.9818
Pd 11.8159 31.1992 19.2437
Au 22.7786 28.1313 19.7548
Au 22.9369 16.7233 31.3721
Pd 10.8455 8.52275 24.7646
Pd 23.5723 16.8774 20.2078
Au 21.5221 18.6227 19.5478
Au 10.6869 12.7807 17.503
Au 19.0996 23.3292 28.6545
Au 20.5242 20.0914 23.1168
Au 14.3044 27.1881 28.9359
Pd 17.6157 22.2051 20.78
Au 11.7877 14.9703 16.0016
Pd 27.8288 21.4102 13.6823
Au 25.591 25.0135 10.0765
Pd 15.9364 13.4962 14.2656
Au 9.18494 10.0661 26.3526
Au 32.9434 25.1311 19.3101
Pd 23.3768 8.17353 16.8128
Au 20.6841 7.70294 16.3456
Au 25.3713 14.6512 12.5531
Au 17.9795 31.6445 26.7965
Au 28.9145 29 22.6668
Au 28.3662 16.0564 18.6234
Au 27.6007 25.4083 11.8455
Au 19.5323 14.5644 31.8464
Pd 28.8384 26.4961 23.8075
Au 17.9891 20.592 29.4061
Pd 19.4287 14.6142 34.5594
Au 18.0394 16.362 30.4068
Pd 19.9169 20.5107 27.2246
Au 24.9383 10.2272 17.6859
Au 25.3065 17.3278 11.2404
Au 17.2587 24.4476 22.479
Au 9.28018 13.3199 19.7366
Au 16.616 10.9653 13.2164
Au 23.7072 26.2109 30.5386
Au 14.7024 16.8852 9.90895
Au 22.5925 18.0824 10.3166
Au 25.5244 18.7027 33.8382
Pd 14.6315 11.7397 19.2667
Au 20.4484 22.715 5.6946
Au 12.4581 12.3703 15.2175
Au 31.6483 17.4345 28.8152
Au 18.4442 24.546 19.7169
Pd 33.5773 20.7939 17.5798
Pd 25.3475 14.1652 27.9494
Au 21.4955 23.6252 30.6827
Au 28.4278 10.7508 20.7656
Pd 14.2 14.8452 33.2597
Au 14.3422 26.188 17.6191
Pd 18.5178 31.2072 16.0023
Au 15.6495 22.8208 5.74876
Au 33.1547 19.2458 27.5512
Au 29.8226 18.1461 9.26811
Au 16.8088 11.2867 31.1264
Au 19.3604 17.6211 22.7821
Au 28.3694 18.2727 14.0176
Au 17.9412 14.7319 15.8179
Au 21.1178 31.5076 17.076
Au 17.8984 13.5576 7.12409
Au 26.8868 24.0557 14.0298
Au 7.96547 18.5435 25.0641
Au 15.6518 15.08 6.77656
Au 21.832 21.5334 25.1169
Au 31.3409 12.0578 20.2518
Au 16.6348 24.3223 17.3898
Au 29.1902 11.0919 13.6729
Pd 17.9482 14.701 20.4516
Au 27.6972 8.35478 21.7633
Au 22.1219 10.863 24.3595
Pd 26.6541 18.0166 26.7747
Au 32.7532 23.4874 23.9151
Au 15.3026 17.8196 21.9742
Au 20.8614 27.0045 10.6756
Au 21.0804 9.30131 12.1028
Pd 17.2109 30.4476 22.653
Au 32.3478 25.4967 22.1928
Au 16.0778 16.2859 14.5489
Pd 21.7361 13.6337 24.4108
Au 27.2566 18.9579 8.67824
Au 8.2732 21.7057 19.8571
Au 22.3803 9.54882 26.7011
Pd 16.5461 26.8264 23.8537
Pd 17.9411 21.4944 6.27353
Au 28.0702 30.8337 20.2433
Au 9.32037 22.9954 8.70351
Au 20.9143 32.9133 19.3837
Au 13.743 27.0118 24.5424
Au 23.7495 30.2676 21.645
Au 13.1547 20.8275 29.7832
Pd 31.4009 19.5441 20.4663
Pd 7.95162 16.5687 12.2663
Pd 14.7921 13.765 27.3805
Au 19.497 27.1769 13.1207
