923
Atoms. Timestep: 20079
Au 19.7541 19.7749 19.7653
Au 22.058 19.7892 18.3498
Au 22.0456 19.7925 21.1946
Au 17.4679 19.7493 18.3303
Au 17.4559 19.7619 21.1774
Au 18.3316 22.0695 19.7473
Au 21.1758 22.0703 19.7465
Au 18.3358 17.4727 19.7712
Au 21.1808 17.4901 19.7781
Au 19.7548 18.3671 22.0771
Au 19.739 21.1952 22.0601
Au 19.7529 18.3488 17.4752
Au 19.7631 21.1846 17.4639
Pd 24.3461 19.785 16.9444
Au 24.41 19.8074 19.7632
Au 24.3289 19.8115 22.6374
Pd 15.1957 19.7294 16.9082
Au 15.1045 19.7424 19.7382
Au 15.1579 19.7472 22.5976
Pd 16.9103 24.3582 19.7339
Au 19.748 24.4447 19.7351
Au 22.5866 24.3642 19.7242
Pd 16.9271 15.184 19.777
Au 19.7556 15.1137 19.7862
Au 22.6105 15.196 19.7934
Au 19.7594 16.9684 24.3955
Au 19.7429 19.7836 24.4603
Au 19.7337 22.6045 24.3588
Au 19.7563 16.9318 15.1785
Au 19.7661 19.7447 15.0993
Au 19.7754 22.5867 15.1605
Au 22.0872 18.364 23.5782
Au 22.0739 21.2215 23.56
Au 22.0993 18.3364 16.007
Au 22.1103 21.2167 15.9992
Au 17.419 18.3293 23.5553
Au 17.4047 21.205 23.5438
Pd 17.4416 18.294 15.9999
Au 17.4361 21.1681 15.9825
Pd 23.5223 22.1116 18.3118
Au 23.5241 22.125 21.1956
Au 15.9919 22.0835 18.2946
Au 15.9805 22.1041 21.1872
Au 23.5458 17.4682 18.3295
Au 23.536 17.4662 21.2404
Au 16.0084 17.4146 18.3046
Au 15.9857 17.4052 21.2165
Au 18.2932 23.5608 22.0718
Au 21.1815 23.5527 22.0725
Au 18.3054 16.0116 22.1131
Au 21.2077 16.0168 22.1339
Au 18.3209 23.5443 17.4086
Au 21.2173 23.5442 17.4171
Au 18.3166 15.9954 17.4385
Au 21.2114 15.9998 17.4456
Au 26.6459 19.7674 15.5401
Au 26.746 19.7837 18.3417
Au 26.7367 19.8054 21.2163
Au 26.6114 19.8136 24.0583
Au 12.8976 19.7127 15.4765
Au 12.7759 19.7274 18.3085
Au 12.7606 19.7287 21.1851
Pd 12.8596 19.7421 24.0103
Au 15.4727 26.6537 19.7371
Au 18.3232 26.7692 19.7272
Pd 21.1744 26.7677 19.7199
Au 23.9941 26.6555 19.7104
Au 15.5221 12.8802 19.7844
Au 18.3413 12.7702 19.7902
Au 21.2023 12.7704 19.7887
Au 24.0438 12.896 19.8042
Pd 19.7574 15.5713 26.6944
Pd 19.7417 18.3719 26.7782
Pd 19.735 21.1972 26.7646
Au 19.7395 24.0303 26.6473
Pd 19.7897 15.5058 12.907
Pd 19.7889 18.3029 12.7889
Pd 19.7908 21.1568 12.7749
Au 19.7899 23.9873 12.845
Pd 24.3857 18.3657 25.0192
Au 22.0896 16.9418 25.9102
Pd 24.3703 21.243 25.0101
Pd 22.0857 19.7968 25.9613
Au 22.085 22.6433 25.8823
Au 24.4146 18.3106 14.5745
Au 22.1129 16.8851 13.6815
Au 24.4061 21.2198 14.5534
Au 22.1093 19.753 13.5766
Au 22.1213 22.6157 13.6402
Au 15.0967 18.3089 24.985
Au 17.422 16.9173 25.8933
Au 15.0718 21.2077 24.9813
Pd 17.3916 19.771 25.9522
Au 17.3805 22.6407 25.8654
Au 15.1622 18.2528 14.5488
Pd 17.4472 16.8615 13.6912
Au 15.1286 21.1694 14.5281
Au 17.4427 19.6957 13.5941
Au 17.4436 22.6045 13.6463
Au 24.9577 24.4304 18.2828
Au 25.8352 22.1326 16.893
Pd 24.9487 24.439 21.1901
Au 25.9145 22.1683 19.7653
Pd 25.828 22.1447 22.6503
Au 14.531 24.4098 18.2771
Au 13.6705 22.0789 16.843
Au 14.523 24.4253 21.1887
Au 13.5709 22.1131 19.7393
Au 13.6473 22.0995 22.6413
Au 24.998 15.1379 18.3292
Pd 25.8639 17.4395 16.9051
Au 24.9989 15.1436 21.2859
Au 25.9429 17.4325 19.7847
Au 25.8523 17.4468 22.7052
Au 14.5734 15.0909 18.3134
Au 13.6963 17.379 16.8691
Pd 14.5515 15.1011 21.2339
Au 13.5939 17.3594 19.7702
Au 13.6604 17.3867 22.6648
Au 18.2738 25.0123 24.3971
Au 16.8498 25.8892 22.0763
Au 21.175 25.0091 24.3927
Au 19.7412 25.9891 22.0932
Au 22.5982 25.8909 22.0589
Au 18.309 14.5893 24.454
Au 16.8739 13.6977 22.1339
Au 21.2215 14.579 24.4781
Au 19.7682 13.5977 22.1677
Au 22.6639 13.6903 22.1817
Pd 18.329 24.9677 15.0722
Au 16.8857 25.8604 17.377
Au 21.2232 24.9721 15.0936
Au 19.7775 25.9569 17.369
Pd 22.6244 25.8713 17.3926
Au 18.3367 14.5479 15.1108
Au 16.9 13.6695 17.4256
Au 21.2444 14.5457 15.1221
Au 19.7831 13.576 17.4194
Au 22.6576 13.6614 17.4274
Au 23.5966 15.9841 23.6517
Au 23.5659 23.5913 23.5766
Au 23.6041 15.9412 15.962
Pd 23.5748 23.5896 15.9404
Pd 15.929 15.96 23.607
Au 15.9039 23.5973 23.5873
Pd 15.9751 15.9211 15.9446
Au 15.9467 23.5708 15.9022
Au 28.9574 19.7448 14.1183
Pd 29.0909 19.7648 16.9308
Au 29.1216 19.7738 19.7774
Au 29.0839 19.7883 22.633
Au 28.9388 19.8015 25.4636
Pd 10.5956 19.6961 14.0376
Au 10.4364 19.7093 16.8723
Au 10.3923 19.7086 19.7466
Au 10.4274 19.7211 22.6103
Au 10.5596 19.7415 25.4028
Au 14.0331 28.9532 19.7281
Au 16.876 29.1033 19.733
Au 19.7564 29.131 19.7198
Au 22.586 29.0893 19.7183
Au 25.4181 28.9588 19.7153
Au 14.1213 10.5416 19.784
Au 16.9476 10.4058 19.785
Au 19.7909 10.3885 19.78
Au 22.6409 10.4346 19.789
Au 25.4848 10.5987 19.7981
Au 19.7401 14.1586 28.9819
Pd 19.7406 16.9554 29.0908
Au 19.7343 19.7866 29.1189
Au 19.7466 22.6369 29.0799
Au 19.7405 25.4685 28.9415
Au 19.8196 14.0826 10.6275
Pd 19.8134 16.8727 10.4944
Au 19.8209 19.7039 10.4552
Au 19.8218 22.5632 10.4468
Pd 19.781 25.3876 10.5319
Au 26.6951 18.3316 26.4486
Au 24.4286 16.9012 27.3528
Pd 22.0956 15.5089 28.2163
Au 26.6698 21.2705 26.4566
Au 24.417 19.8182 27.4335
Au 22.1009 18.3693 28.3166
Pd 24.3908 22.6962 27.3446
Au 22.1146 21.2488 28.3026
Pd 22.0929 24.1027 28.1807
Au 26.7257 18.2727 13.1336
Pd 24.4419 16.8436 12.2379
Au 22.1489 15.4523 11.3955
Au 26.7246 21.2105 13.1057
Au 24.4473 19.7383 12.1158
Pd 22.158 18.2873 11.2487
Pd 24.4389 22.6338 12.1763
Pd 22.1541 21.1731 11.2246
Pd 22.1335 24.0299 11.3247
Au 12.7734 18.3107 26.3992
Au 15.0771 16.8812 27.3392
Pd 17.4099 15.5016 28.2028
Pd 12.754 21.2042 26.393
Au 15.0282 19.7826 27.4143
Au 17.3802 18.3422 28.3155
Au 15.0243 22.6731 27.3051
Au 17.3493 21.2131 28.3078
Au 17.36 24.1009 28.1751
Au 12.8328 18.2414 13.09
Pd 15.1353 16.8143 12.2024
Au 17.4717 15.4277 11.3923
Au 12.8085 21.1566 13.0668
Au 15.0996 19.6878 12.0975
Au 17.442 18.2539 11.2437
Au 15.0983 22.606 12.1598
Au 17.4316 21.1305 11.2159
Au 17.4358 24.023 11.2989
Pd 26.4057 26.7452 18.2729
Pd 27.3205 24.4702 16.8629
Au 28.1899 22.129 15.4754
Au 26.3924 26.7553 21.1882
Au 27.3946 24.5004 19.7422
Au 28.305 22.1612 18.3228
Au 27.2965 24.4746 22.6452
Au 28.2937 22.1884 21.2107
Au 28.1564 22.1699 24.0854
Au 13.0498 26.7271 18.2639
Au 12.168 24.4144 16.7993
Au 11.3403 22.064 15.3982
Pd 13.0612 26.7274 21.1869
Au 12.0581 24.4651 19.7344
Au 11.1889 22.1106 18.2837
Au 12.1695 24.4329 22.6484
Au 11.1796 22.1141 21.1861
Au 11.3279 22.0911 24.0639
Au 26.4542 12.8137 18.3389
Au 27.351 15.0942 16.8976
Au 28.191 17.4105 15.4863
Au 26.4552 12.843 21.293
Au 27.4407 15.0838 19.821
Au 28.3181 17.4069 18.3512
Pd 27.3402 15.1184 22.7202
Au 28.3063 17.3913 21.2475
Au 28.1754 17.4214 24.1032
Au 13.1263 12.7553 18.2985
Au 12.218 15.0288 16.8509
Au 11.3535 17.3539 15.4264
Au 13.1176 12.7743 21.2483
Au 12.1075 15.0141 19.7751
Au 11.2056 17.336 18.3209
Au 12.1909 15.0703 22.6779
Au 11.1991 17.3398 21.2125
Pd 11.3328 17.4001 24.0692
Au 18.2657 26.4644 26.7015
Au 16.8249 27.367 24.4115
Pd 15.4001 28.2029 22.088
Au 21.1849 26.4623 26.7078
Pd 19.7208 27.4663 24.4343
Au 18.2938 28.3436 22.1191
Au 22.5945 27.3765 24.3956
Pd 21.1656 28.3499 22.0953
Au 24.0242 28.2127 22.0724
Au 18.2986 13.1677 26.7743
Au 16.8832 12.2116 24.482
Au 15.4745 11.3366 22.1582
Au 21.2172 13.1564 26.793
Au 19.7833 12.1148 24.5252
Au 18.344 11.203 22.1872
Pd 22.6794 12.2207 24.5123
Au 21.2334 11.217 22.1967
Au 24.1077 11.3751 22.1931
Au 18.3241 26.3872 12.7389
Au 16.8738 27.3127 15.0148
Au 15.4253 28.1869 17.3488
Au 21.2268 26.3887 12.7459
Au 19.7721 27.422 15.0158
Au 18.3295 28.3305 17.3296
Au 22.6443 27.3274 15.058
Pd 21.1998 28.32 17.3507
Au 24.0467 28.1873 17.3621
Pd 18.3636 13.0879 12.8129
Au 16.9107 12.1786 15.0906
Au 15.5029 11.3164 17.4126
Au 21.2701 13.111 12.8302
Au 19.8186 12.0863 15.0857
Au 18.3732 11.1898 17.4075
Pd 22.6988 12.1982 15.1103
Pd 21.2412 11.2056 17.4076
Au 24.0956 11.3534 17.4248
Pd 25.9317 15.9481 25.0838
Au 25.8908 23.6312 25.0631
Pd 25.0708 13.6366 23.6793
Au 25.0059 25.9644 23.5938
Au 23.6279 14.5162 25.9811
Au 23.5748 25.0602 25.9434
Au 25.9343 15.9003 14.5092
Au 25.9245 23.619 14.4777
Pd 25.0604 13.5904 15.9429
Au 25.0291 25.9362 15.9068
Pd 23.6324 14.4789 13.6271
Au 23.6118 25.0225 13.5678
Pd 13.5704 15.9152 25.0618
Pd 13.5502 23.609 25.0361
Au 14.4727 13.611 23.6406
Au 14.4319 25.9422 23.5917
Au 15.9027 14.5132 25.9621
Pd 15.8677 25.0698 25.9212
Au 13.6438 15.862 14.4678
Pd 13.5866 23.571 14.4229
Pd 14.5139 13.5634 15.917
Au 14.4496 25.9175 15.8437
Au 15.9631 14.4572 13.6151
Au 15.9255 25.0217 13.5408
Au 31.2612 19.7166 12.6947
Pd 31.383 19.7481 15.4913
Au 31.4668 19.7509 18.3458
Au 31.4878 19.7476 21.2094
Au 31.4337 19.7954 24.0516
Au 31.2559 19.8017 26.8782
Au 8.32202 19.6823 12.5907
Au 8.13231 19.6822 15.4203
Pd 8.08229 19.6943 18.3087
Pd 8.07339 19.7092 21.1695
Pd 8.12414 19.7267 24.0138
Pd 8.26915 19.7517 26.7812
Au 12.5955 31.263 19.6942
Au 15.4316 31.4492 19.7034
Au 18.3111 31.5084 19.7042
Au 21.192 31.4898 19.7188
Pd 24.0443 31.3887 19.7289
Pd 26.8222 31.2397 19.7266
Pd 12.7276 8.25473 19.7778
Au 15.5294 8.06638 19.7851
Pd 18.3748 8.04336 19.7814
Au 21.2163 8.04355 19.7874
Au 24.0954 8.11408 19.7951
Au 26.9153 8.30162 19.7874
Au 19.7208 12.7132 31.2863
Au 19.7071 15.5358 31.4297
Au 19.7151 18.3655 31.4845
Au 19.7422 21.2436 31.4858
Au 19.7419 24.0861 31.415
Pd 19.7405 26.8817 31.2165
Pd 19.8362 12.6623 8.34765
Au 19.825 15.443 8.17549
Pd 19.8117 18.2748 8.14483
Au 19.797 21.1144 8.08375
Au 19.804 23.966 8.09565
Au 19.7723 26.7888 8.22936
Au 29.0353 18.3473 27.8952
Au 26.7763 16.8832 28.8304
Au 24.4494 15.4649 29.7098
Au 22.1008 14.0713 30.5314
Au 29.0213 21.2795 27.8833
Au 26.7729 19.8342 28.9463
Au 24.4807 18.3805 29.8637
Au 22.1146 16.9405 30.6852
Au 26.6948 22.748 28.8066
Pd 24.4533 21.2938 29.8111
Au 22.1435 19.8378 30.7253
Pd 24.3939 24.1304 29.6512
Pd 22.1227 22.6988 30.6292
Au 22.1029 25.5427 30.4907
Au 29.0539 18.2476 11.7074
Pd 26.7515 16.8156 10.8109
Pd 24.4617 15.4076 9.94004
Pd 22.1686 14.0188 9.09859
Au 29.0683 21.1835 11.6702
Au 26.8083 19.7001 10.6454
Au 24.5211 18.2514 9.759
Au 22.1823 16.851 8.91021
Au 26.776 22.6309 10.7235
Au 24.4924 21.1705 9.71784
Au 22.1808 19.7119 8.85801
Au 24.4586 24.0428 9.82697
Pd 22.1734 22.5868 8.88051
Au 22.1336 25.4344 9.00683
Au 10.4451 18.3105 27.8218
Au 12.7346 16.879 28.7948
Pd 15.075 15.458 29.6475
Au 17.3579 14.0691 30.5069
Au 10.4295 21.1973 27.8012
Pd 12.6802 19.7761 28.8602
Au 14.9942 18.3424 29.8186
Pd 17.3511 16.905 30.6449
Au 12.7021 22.6421 28.7472
Pd 14.9652 21.2316 29.7974
Au 17.3049 19.7803 30.7345
Au 15.0065 24.1119 29.6615
Au 17.31 22.6651 30.6916
Au 17.3616 25.5592 30.5152
Pd 10.5352 18.2346 11.647
Au 12.8156 16.805 10.7374
Au 15.1526 15.3831 9.87022
Pd 17.4981 14.0059 9.06934
Pd 10.5214 21.1076 11.6301
Au 12.7686 19.6773 10.5954
Pd 15.0874 18.2454 9.73746
Au 17.4452 16.8352 8.88858
Au 12.7761 22.5675 10.6814
Pd 15.0699 21.1239 9.71483
Au 17.398 19.6807 8.82352
Au 15.0769 24.0161 9.78909
Au 17.3948 22.5443 8.83348
Au 17.4105 25.4394 8.9627
Au 27.8393 29.0691 18.2682
Au 28.7672 26.8001 16.8516
Au 29.6816 24.4867 15.4359
Au 30.5395 22.1081 14.0339
Au 27.8227 29.1078 21.2096
Au 28.8723 26.8311 19.7536
Au 29.8238 24.5238 18.3249
Au 30.7072 22.1431 16.8985
Au 28.7676 26.8215 22.6576
Pd 29.8006 24.5463 21.216
Au 30.7336 22.1897 19.7759
Au 29.6621 24.5137 24.0953
Au 30.6823 22.2097 22.6473
Au 30.5131 22.1916 25.5348
Au 11.5817 29.0525 18.2322
Au 10.6662 26.738 16.7724
Pd 9.83266 24.3789 15.3542
Au 9.03183 22.0413 13.9475
Au 11.6057 29.0293 21.1676
Au 10.5429 26.7945 19.7214
Au 9.63826 24.4652 18.2437
Au 8.81616 22.09 16.8369
Au 10.687 26.7325 22.6352
Au 9.63285 24.4667 21.1867
Au 8.75962 22.0872 19.7216
Pd 9.82448 24.4021 24.0558
Au 8.81828 22.1007 22.6185
Pd 9.00713 22.0708 25.4523
Pd 27.8878 10.5074 18.3551
Au 28.8378 12.7541 16.9285
Au 29.7133 15.0756 15.4619
Pd 30.5 17.3975 14.0552
Au 27.9068 10.5303 21.2577
Pd 28.8972 12.7627 19.8185
Au 29.8594 15.051 18.3938
Au 30.6781 17.3923 16.9191
Au 28.8309 12.8288 22.7083
Pd 29.8083 15.0653 21.2651
Pd 30.7001 17.3793 19.818
Pd 29.6671 15.1233 24.1159
Pd 30.6453 17.3993 22.6611
Au 30.5137 17.4265 25.5095
Au 11.6967 10.4039 18.3036
Au 10.7518 12.6874 16.8417
Au 9.87195 14.989 15.3922
Au 9.05392 17.3332 13.9584
Au 11.6847 10.4172 21.2465
Au 10.6225 12.661 19.7689
Au 9.68433 14.9725 18.3197
Au 8.82778 17.3046 16.8683
Au 10.7343 12.7211 22.6688
Pd 9.70005 14.9876 21.2055
Pd 8.80273 17.3274 19.7522
Au 9.83046 15.0783 24.08
Au 8.83003 17.3443 22.6164
Pd 9.01352 17.4195 25.4658
Au 18.2756 27.911 29.0321
Au 16.8107 28.8441 26.7435
Au 15.3806 29.7095 24.4238
Au 13.9493 30.5251 22.0876
Au 21.1873 27.9042 29.0339
Au 19.7314 28.9544 26.7686
Pd 18.2701 29.8414 24.4634
Au 16.8394 30.712 22.1337
Au 22.6486 28.8421 26.7336
Au 21.1648 29.8689 24.4615
Au 19.7315 30.7599 22.1379
Pd 24.0501 29.6833 24.4014
Au 22.63 30.7046 22.117
Pd 25.4584 30.5009 22.0571
Au 18.2648 11.711 29.0717
Pd 16.8762 10.7938 26.7983
Au 15.4553 9.84872 24.5073
Au 14.0538 8.99009 22.1605
Au 21.1979 11.6803 29.1113
Au 19.7306 10.6406 26.8596
Pd 18.3198 9.71218 24.5613
Au 16.9258 8.80291 22.2039
Au 22.6612 10.7652 26.831
Au 21.2231 9.69764 24.5587
Au 19.7818 8.78175 22.2073
Au 24.1134 9.87943 24.5202
Au 22.6807 8.83412 22.2101
Au 25.5574 9.03482 22.1673
Au 18.304 27.8111 10.4131
Pd 16.8655 28.7297 12.6732
Au 15.4109 29.6543 14.9587
Au 13.9661 30.5157 17.3238
Pd 21.214 27.7892 10.4252
Au 19.7782 28.8764 12.6489
Au 18.3175 29.8348 14.9286
Au 16.8572 30.7104 17.2822
Pd 22.6536 28.7403 12.7126
Pd 21.2257 29.7999 14.9715
Au 19.7715 30.7435 17.2846
Au 24.0937 29.6586 15.0007
Au 22.6303 30.6897 17.3172
Au 25.4929 30.524 17.3625
Au 18.3795 11.6646 10.4967
Au 16.9226 10.7144 12.7681
Au 15.4874 9.79887 15.073
Au 14.0884 8.97178 17.4181
Au 21.2973 11.6797 10.5071
Au 19.8249 10.6114 12.7471
Au 18.3741 9.64412 15.0648
Pd 16.9482 8.83157 17.4111
Au 22.7321 10.7584 12.7953
Au 21.2693 9.67386 15.0732
Pd 19.803 8.806 17.4161
Au 24.1512 9.86372 15.099
Au 22.677 8.85016 17.4057
Pd 25.5488 9.0558 17.4529
Au 28.2704 15.9088 26.5182
Au 28.2462 23.6993 26.5469
Pd 27.4421 13.614 25.1074
Au 27.3908 26.0254 25.0991
Au 26.552 11.2922 23.706
Au 26.4626 28.3414 23.62
Pd 25.9902 14.4883 27.4507
Pd 25.92 25.0985 27.429
Au 25.1228 12.1434 26.0308
Au 25.05 27.4638 25.9785
Au 23.6482 13.0569 28.3334
Au 23.6089 26.5378 28.2807
Pd 28.2829 15.8805 13.0653
Au 28.3032 23.6477 13.0002
Au 27.4404 13.5413 14.4705
Au 27.4052 26.0033 14.4362
Au 26.5415 11.2549 15.9238
Pd 26.4722 28.2792 15.8815
Au 25.9713 14.4366 12.1503
Au 25.9813 25.0779 12.0712
Pd 25.0882 12.1341 13.604
Pd 25.0598 27.4106 13.5389
Pd 23.6511 13.0476 11.3131
Au 23.634 26.4864 11.2135
Au 11.209 15.8915 26.4928
Au 11.1955 23.6187 26.4612
Au 12.0794 13.5182 25.106
Pd 12.0453 25.9618 25.0423
Pd 13.0366 11.2221 23.6551
Au 12.9503 28.2735 23.5856
Au 13.535 14.4333 27.453
Au 13.4751 25.1015 27.3931
Au 14.4493 12.0926 26.0118
Au 14.3701 27.438 25.9525
Pd 15.9032 13.0704 28.2974
Au 15.8266 26.5517 28.2721
Pd 11.2949 15.8468 13.0082
Au 11.2484 23.5518 12.9519
Au 12.1497 13.4862 14.4038
Au 12.0511 25.9331 14.3357
Au 13.0693 11.192 15.8748
Au 12.9599 28.2812 15.7871
Au 13.6032 14.3791 12.0934
Au 13.5526 25.04 12.0243
Pd 14.5055 12.068 13.5668
Au 14.4274 27.4004 13.4401
Au 15.9646 12.9899 11.2712
Pd 15.9177 26.442 11.1787
Pd 33.4584 19.6988 11.3343
Au 33.6445 19.7202 14.0633
Pd 33.6598 19.7342 16.8862
Au 33.7456 19.7395 19.7721
Au 33.7429 19.7601 22.6579
Au 33.6738 19.7927 25.5288
Au 33.4623 19.8054 28.2521
Au 6.10969 19.6673 11.2023
Au 5.90037 19.6688 13.9479
Pd 5.88075 19.6801 16.8365
Au 5.81919 19.7178 19.7232
Au 5.82892 19.7302 22.6031
Au 5.86485 19.7378 25.4407
Au 6.03508 19.7548 28.1473
Au 11.2101 33.4714 19.684
Au 13.9442 33.6876 19.689
Au 16.8379 33.7604 19.6864
Au 19.7633 33.7734 19.7096
Pd 22.6686 33.6858 19.7322
Au 25.486 33.6392 19.7363
Au 28.1923 33.4705 19.7424
Au 11.3704 6.02239 19.773
Au 14.0741 5.83997 19.7764
Au 16.9431 5.77674 19.7724
Au 19.8102 5.77736 19.7789
Pd 22.6985 5.85075 19.7911
Au 25.5627 5.87934 19.801
Au 28.294 6.09294 19.7978
Au 19.7064 11.3486 33.5065
Au 19.705 14.0725 33.6877
Au 19.719 16.9233 33.7506
Au 19.7353 19.8128 33.7615
Au 19.7483 22.7089 33.7351
Au 19.7477 25.5695 33.6449
Au 19.7465 28.2705 33.4305
Au 19.8476 11.2767 6.12332
Au 19.836 13.993 5.92604
Pd 19.825 16.8294 5.917
Pd 19.8043 19.6665 5.87497
Au 19.7861 22.5272 5.80781
Au 19.7863 25.3924 5.8282
Au 19.7795 28.1313 5.99079
Pd 31.3264 18.4037 29.2168
Au 29.0875 16.9429 30.196
Au 26.7508 15.4782 31.1245
Au 24.3743 14.0474 31.9852
Pd 21.9981 12.6561 32.7769
Pd 31.3124 21.2371 29.1987
Au 29.1377 19.8285 30.3069
Au 26.8382 18.3569 31.2862
Au 24.4561 16.8933 32.1741
Pd 22.0543 15.4717 32.9398
Pd 28.9941 22.7052 30.1302
Au 26.7891 21.3209 31.26
Au 24.4765 19.8704 32.1976
Au 22.0963 18.379 33.0516
Au 26.6836 24.1594 31.0672
Au 24.4326 22.756 32.1057
Pd 22.0898 21.3033 32.99
Au 24.3729 25.5658 31.9192
Pd 22.0837 24.1604 32.8954
Au 22.0329 26.9788 32.7471
Au 31.3443 18.2804 10.3334
Pd 29.036 16.8427 9.45222
Au 26.7492 15.4084 8.54705
Au 24.4533 13.9847 7.67364
Au 22.1419 12.5866 6.8357
Au 31.3625 21.1264 10.3074
Pd 29.1433 19.6979 9.31858
Au 26.8514 18.2306 8.34309
Pd 24.5161 16.7848 7.50253
Au 22.1885 15.3909 6.62099
Pd 29.0715 22.5685 9.39183
Pd 26.8345 21.1578 8.35245
Pd 24.5056 19.6867 7.43352
Au 22.157 18.2641 6.55591
Au 26.7584 24.0063 8.4237
Au 24.4989 22.5802 7.39224
Pd 22.1373 21.1383 6.56741
Au 24.4131 25.4345 7.53786
Au 22.1464 23.9931 6.54897
Pd 22.0594 26.8112 6.74418
Pd 8.16098 18.365 29.1423
Au 10.4144 16.9126 30.1428
Au 12.7869 15.4616 31.0594
Pd 15.1031 14.0553 31.9061
Au 17.4033 12.647 32.7873
Au 8.12747 21.169 29.1567
Au 10.3427 19.7723 30.245
Au 12.6485 18.327 31.2263
Pd 15.0255 16.8715 32.0661
Au 17.3408 15.469 32.9608
Pd 10.409 22.6039 30.0702
Au 12.6257 21.2323 31.198
Au 14.949 19.7906 32.1731
Au 17.3376 18.319 33.0384
Pd 12.7196 24.0645 31.0007
Au 14.9529 22.6918 32.1222
Au 17.3572 21.2456 33.0661
Au 15.061 25.5453 31.9297
Au 17.3676 24.1559 32.9855
Au 17.4453 26.9901 32.7682
Au 8.25602 18.2413 10.2361
Au 10.5445 16.8238 9.34205
Pd 12.8849 15.3937 8.49341
Au 15.2202 13.9655 7.61234
Au 17.5491 12.5746 6.80623
Au 8.24293 21.083 10.2241
Au 10.455 19.6735 9.20197
Au 12.7839 18.2221 8.27687
Pd 15.1323 16.7944 7.46307
Au 17.471 15.3811 6.60121
Pd 10.5105 22.4913 9.34375
Pd 12.7646 21.1263 8.29991
Pd 15.0853 19.6722 7.41172
Pd 17.4743 18.2334 6.56718
Au 12.7948 23.9584 8.39382
Pd 15.0793 22.5547 7.41521
Au 17.4261 21.098 6.49537
Au 15.1311 25.3993 7.50168
Pd 17.4486 23.9948 6.57096
Au 17.4741 26.8249 6.66971
Au 29.2027 31.3748 18.3279
Au 30.1519 29.0961 16.886
Au 31.0662 26.7815 15.4478
Au 31.9606 24.4084 14.0069
Au 32.8022 22.0256 12.6073
Au 29.1892 31.3953 21.1695
Pd 30.2052 29.1676 19.757
Pd 31.1748 26.8616 18.2962
Au 32.1472 24.5104 16.8647
Au 32.9974 22.083 15.4346
Au 30.1255 29.1275 22.6314
Au 31.2109 26.8885 21.2148
Au 32.1732 24.5412 19.7887
Au 33.0649 22.1047 18.3339
Pd 31.0243 26.7955 24.0629
Au 32.1225 24.5548 22.6769
Pd 33.015 22.1181 21.2327
Au 31.9352 24.4798 25.5234
Au 32.9854 22.1679 24.1164
Au 32.7822 22.1211 26.9581
Au 10.2128 31.3541 18.2595
Au 9.28347 29.0422 16.8015
Au 8.40217 26.6601 15.3351
Au 7.57419 24.3099 13.9147
Au 6.77293 21.9734 12.5079
Pd 10.2631 31.314 21.1046
Au 9.15937 29.1335 19.7022
Au 8.20748 26.797 18.2186
Au 7.34742 24.4165 16.7542
Pd 6.60211 22.0187 15.3286
Pd 9.33476 29.0103 22.5623
Au 8.20714 26.7983 21.1821
Pd 7.32987 24.4263 19.703
Au 6.47038 22.0431 18.2573
Au 8.39855 26.6863 24.0248
Au 7.33518 24.4194 22.638
Pd 6.50477 22.046 21.1779
Au 7.54577 24.3424 25.4467
Pd 6.57893 22.0502 24.0639
Au 6.72596 22.0298 26.8519
Au 29.2859 8.22306 18.3947
Au 30.2111 10.4679 16.9721
Au 31.1261 12.7843 15.5127
Au 31.9785 15.1226 14.0521
Au 32.7764 17.4182 12.6498
Pd 29.2397 8.246 21.216
Pd 30.2649 10.4559 19.805
Pd 31.2222 12.7221 18.3741
Au 32.1611 15.0607 16.9152
Pd 32.9084 17.4177 15.4507
Au 30.2056 10.5238 22.6566
Au 31.2442 12.7524 21.2475
Au 32.1811 15.0552 19.8436
Pd 32.9796 17.4108 18.3608
Au 31.1124 12.8547 24.0996
Pd 32.0779 15.0992 22.7061
Au 33.0182 17.3926 21.2551
Au 31.951 15.1654 25.5219
Pd 32.9136 17.4416 24.117
Au 32.7763 17.501 26.944
Au 10.36 8.09733 18.3476
Pd 9.43737 10.3852 16.8891
Au 8.49591 12.6927 15.4032
Pd 7.64637 15.0547 13.9581
Au 6.7967 17.3628 12.5244
Au 10.3451 8.10901 21.1813
Au 9.25802 10.306 19.7471
Pd 8.34338 12.6205 18.2673
Au 7.39972 14.9388 16.81
Au 6.56883 17.3196 15.3665
Au 9.36727 10.412 22.6276
Au 8.28285 12.6453 21.2039
Au 7.34524 14.9729 19.7453
Au 6.48893 17.3471 18.2965
Pd 8.47432 12.7794 24.0547
Au 7.37636 15.001 22.6412
Au 6.47724 17.3728 21.1719
Au 7.56357 15.1311 25.4865
Au 6.54477 17.3917 24.0665
Au 6.73767 17.4647 26.8738
Pd 18.3322 29.2302 31.3117
Au 16.8629 30.2098 29.0533
Au 15.3868 31.119 26.7194
Au 13.9383 31.9748 24.3666
Au 12.5108 32.792 22.0063
Pd 21.1425 29.2295 31.3057
Au 19.7345 30.3278 29.1219
Pd 18.2552 31.2363 26.7955
Au 16.8021 32.1623 24.4811
Au 15.3551 33.0071 22.0785
Pd 22.5992 30.1724 29.0257
Au 21.2001 31.2872 26.8137
Au 19.7074 32.2097 24.4923
Au 18.2706 33.0872 22.0865
Au 24.0714 31.0966 26.6913
Au 22.6734 32.158 24.4611
Au 21.2072 33.0739 22.0939
Pd 25.4676 31.9085 24.3186
Au 24.1018 32.9681 22.0764
Pd 26.868 32.7304 22.0033
Pd 18.3131 10.3762 31.3571
Pd 16.9005 9.43498 29.0716
Pd 15.4773 8.52711 26.7872
Au 14.0435 7.57065 24.4499
Pd 12.6586 6.75347 22.0567
Au 21.1464 10.3241 31.4181
Au 19.731 9.25676 29.1981
Au 18.2825 8.31543 26.8961
Au 16.8762 7.38583 24.5687
Au 15.4617 6.50895 22.1491
Au 22.6203 9.38263 29.1321
Pd 21.2122 8.34911 26.8956
Au 19.7755 7.35038 24.5658
Au 18.364 6.44841 22.1481
Pd 24.0656 8.50949 26.7857
Au 22.6967 7.40014 24.5536
Pd 21.2518 6.51063 22.135
Pd 25.5318 7.63356 24.4324
Au 24.1477 6.55145 22.1629
Au 26.9785 6.76946 22.1071
Au 18.3408 29.155 8.08743
Au 16.8737 30.0948 10.3606
Au 15.4236 31.0036 12.6527
Pd 13.9738 31.8883 15.0332
Au 12.5243 32.7783 17.3718
Au 21.1969 29.1474 8.11216
Au 19.7742 30.2328 10.2933
Au 18.2737 31.2042 12.5661
Au 16.8092 32.1312 14.9092
Au 15.3618 32.991 17.3086
Au 22.6366 30.0824 10.4001
Au 21.2429 31.1996 12.6124
Au 19.7761 32.1764 14.9226
Au 18.2957 33.0718 17.3139
Au 24.0878 31.0221 12.6981
Au 22.6759 32.1241 14.9561
Au 21.2206 33.0695 17.3432
Au 25.524 31.9312 15.0545
Au 24.1009 32.9817 17.3739
Au 26.9183 32.7889 17.4358
Au 18.4252 10.2901 8.211
Pd 16.9905 9.38736 10.4862
Au 15.5179 8.42013 12.7737
Au 14.0693 7.52831 15.1369
Pd 12.6838 6.7426 17.5061
Au 21.2699 10.297 8.22426
Pd 19.8367 9.2888 10.4149
Au 18.3681 8.26129 12.6968
Au 16.9087 7.3379 15.0807
Pd 15.4955 6.56854 17.4469
Pd 22.6979 9.40999 10.5115
Au 21.3051 8.28266 12.7087
Au 19.8348 7.30643 15.0874
Au 18.3759 6.48418 17.4373
Au 24.1523 8.47745 12.8009
Au 22.7538 7.37301 15.0838
Pd 21.2618 6.53046 17.4569
Au 25.5896 7.60851 15.1684
Pd 24.1735 6.62111 17.4579
Au 26.9813 6.78018 17.5004
Pd 30.5822 16.0181 27.9053
Au 30.5816 23.6609 27.947
Au 29.7928 13.6295 26.5111
Pd 29.7184 25.9879 26.483
Au 28.9201 11.2941 25.0982
Au 28.8227 28.3482 25.0615
Au 27.9727 8.96025 23.6304
Au 27.8719 30.6503 23.5661
Au 28.3259 14.5139 28.8948
Au 28.2392 25.1341 28.8745
Au 27.4709 12.1567 27.458
Pd 27.3594 27.4377 27.42
Au 26.5225 9.78359 26.013
Pd 26.4333 29.7849 25.9093
Au 25.9792 13.0636 29.8035
Pd 25.8872 26.5088 29.7319
Au 25.0597 10.6747 28.3519
Au 25.0353 28.9095 28.2857
Au 23.5698 11.6342 30.6669
Au 23.5592 27.9703 30.5901
Au 30.6098 15.9098 11.6527
Au 30.6338 23.5542 11.5794
Au 29.7919 13.5645 13.0577
Au 29.7624 25.9846 13.0178
Au 28.9231 11.2305 14.5197
Pd 28.833 28.2874 14.5013
Au 27.9766 8.94431 16.0037
Au 27.9199 30.5964 15.9058
Au 28.2895 14.45 10.7207
Au 28.3127 25.0268 10.6127
Pd 27.4128 12.1252 12.16
Pd 27.4042 27.4017 12.099
Au 26.5395 9.80565 13.5886
Au 26.514 29.7189 13.5361
Pd 25.9452 13.0505 9.85631
Au 25.9701 26.4666 9.71513
Pd 25.0683 10.73 11.3082
Au 25.0631 28.829 11.1992
Au 23.6555 11.6176 9.00411
Au 23.5846 27.8664 8.87571
Au 8.87782 15.9515 27.8911
Au 8.86 23.5603 27.852
Au 9.72325 13.5565 26.4958
Au 9.69624 25.9335 26.4367
Au 10.6543 11.1798 25.0554
Au 10.589 28.282 25.0019
Au 11.6276 8.88318 23.6101
Au 11.5248 30.5944 23.529
Au 11.198 14.4719 28.8838
Au 11.1522 25.0455 28.826
Au 12.0956 12.0591 27.4656
Au 12.0113 27.4479 27.3796
Au 13.0438 9.74785 25.9928
Pd 12.9806 29.7634 25.8758
Au 13.5847 13.0382 29.7849
Au 13.4927 26.5263 29.7462
Pd 14.5218 10.7166 28.3141
Au 14.4087 28.9247 28.2677
Au 15.9142 11.6384 30.604
Au 15.8979 27.9829 30.5993
Au 9.00479 15.8616 11.5572
Pd 8.96812 23.4345 11.5521
Au 9.82322 13.5036 12.9813
Au 9.72772 25.8483 12.9125
Pd 10.7288 11.1822 14.482
Au 10.5849 28.2548 14.3571
Au 11.6635 8.85786 15.9399
Au 11.5333 30.5995 15.8402
Pd 11.3156 14.4412 10.6703
Pd 11.2594 24.9126 10.5949
Au 12.1676 12.0247 12.0759
Au 12.0782 27.3721 11.9672
Au 13.0907 9.71991 13.55
Au 12.9983 29.735 13.4372
Au 13.6579 12.9648 9.75967
Au 13.584 26.4183 9.6691
Pd 14.5777 10.6512 11.2603
Pd 14.5068 28.7774 11.1325
Pd 16.0644 11.609 8.97388
Au 15.9356 27.8399 8.84115
