923
Atoms. Timestep: 20107
Au 19.753 19.7764 19.7642
Au 22.0555 19.7914 18.3464
Au 22.046 19.7833 21.1912
Au 17.4653 19.7615 18.3314
Au 17.4562 19.7626 21.1786
Au 18.3354 22.074 19.7568
Au 21.1796 22.0687 19.7532
Au 18.3298 17.4772 19.7623
Au 21.1748 17.4885 19.7663
Au 19.753 18.3593 22.0703
Au 19.7433 21.1874 22.0647
Au 19.7465 18.3596 17.4684
Au 19.7628 21.1953 17.4685
Pd 24.3422 19.788 16.9387
Au 24.409 19.7988 19.7575
Au 24.3308 19.7916 22.6318
Pd 15.1916 19.7522 16.9115
Au 15.1033 19.7539 19.7417
Au 15.1595 19.7471 22.601
Pd 16.919 24.3658 19.7542
Au 19.7569 24.4462 19.7528
Au 22.5954 24.3597 19.7387
Pd 16.9161 15.1915 19.7602
Au 19.7445 15.1151 19.7663
Au 22.5996 15.1913 19.7709
Au 19.7568 16.9512 24.383
Au 19.7465 19.7661 24.4592
Au 19.7433 22.5875 24.3691
Au 19.7445 16.9518 15.166
Au 19.7603 19.765 15.0981
Au 19.7758 22.6067 15.1707
Au 22.0869 18.3451 23.569
Au 22.0797 21.2027 23.5624
Au 22.0914 18.348 15.9978
Au 22.1085 21.2283 16.0015
Au 17.4185 18.3205 23.5507
Au 17.4104 21.1963 23.5508
Pd 17.4336 18.3157 15.9952
Au 17.4342 21.1898 15.9894
Pd 23.5247 22.1108 18.3163
Au 23.5294 22.1126 21.2001
Au 15.9943 22.0989 18.3066
Au 15.9858 22.1079 21.1992
Au 23.5383 17.4673 18.3153
Au 23.5314 17.4536 21.2262
Au 16.0008 17.43 18.2978
Au 15.981 17.4089 21.2096
Au 18.3025 23.5561 22.0874
Au 21.1908 23.5418 22.0852
Au 18.2986 16.0068 22.0983
Au 21.2009 16.0056 22.1161
Au 18.3256 23.5583 17.4242
Au 21.222 23.5519 17.4297
Au 18.305 16.0094 17.4236
Au 21.1999 16.0075 17.4278
Au 26.6405 19.7711 15.5321
Au 26.7434 19.7759 18.3336
Au 26.7371 19.786 21.2082
Au 26.6146 19.783 24.0504
Au 12.8921 19.7462 15.4821
Au 12.7733 19.7497 18.3143
Au 12.7608 19.7395 21.1909
Pd 12.8627 19.7413 24.016
Au 15.4864 26.6644 19.7681
Au 18.3371 26.7738 19.7558
Pd 21.1883 26.7663 19.7456
Au 24.0078 26.648 19.7328
Au 15.5062 12.8908 19.7597
Au 18.3251 12.7747 19.7623
Au 21.1861 12.7688 19.7578
Au 24.0279 12.8882 19.771
Pd 19.7541 15.5448 26.6762
Pd 19.7446 18.3451 26.7714
Pd 19.744 21.1705 26.7692
Au 19.7545 24.004 26.6633
Pd 19.7725 15.5349 12.8887
Pd 19.7776 18.3325 12.7819
Pd 19.7857 21.1864 12.7794
Au 19.791 24.0166 12.8609
Pd 24.3868 18.3361 25.0077
Au 22.0885 16.9135 25.8953
Pd 24.3776 21.2134 25.0102
Pd 22.0908 19.7683 25.9579
Au 22.0962 22.6151 25.8903
Au 24.4051 18.323 14.5628
Au 22.0995 16.9061 13.6664
Au 24.4029 21.2323 14.5534
Au 22.1019 19.7744 13.573
Au 22.1202 22.6368 13.6482
Au 15.0976 18.2993 24.9826
Au 17.4209 16.8991 25.8829
Au 15.079 21.1982 24.9906
Pd 17.3966 19.7526 25.9535
Au 17.3917 22.6227 25.8782
Au 15.1526 18.2852 14.5462
Pd 17.4338 16.8925 13.6808
Au 15.1253 21.2019 14.5373
Au 17.4352 19.727 13.595
Au 17.4425 22.6356 13.659
Au 24.9651 24.4266 18.2952
Au 25.8363 22.1325 16.8952
Pd 24.959 24.4235 21.2025
Au 25.9186 22.1565 19.7676
Pd 25.8348 22.1214 22.6526
Au 14.5384 24.4285 18.3
Au 13.6714 22.1052 16.8574
Au 14.5334 24.4322 21.2116
Au 13.5748 22.1279 19.7539
Au 13.6541 22.1024 22.6557
Au 24.9855 15.1339 18.3041
Pd 25.8549 17.4394 16.8884
Au 24.9893 15.1277 21.2608
Au 25.9368 17.4206 19.7679
Au 25.8491 17.4233 22.6885
Au 14.5608 15.1094 18.2986
Au 13.6872 17.4052 16.8644
Pd 14.5419 15.1078 21.2192
Au 13.5876 17.3741 19.7656
Au 13.657 17.3896 22.6602
Au 18.2886 24.9982 24.4186
Au 16.8642 25.8875 22.1028
Au 21.1898 24.9888 24.4112
Au 19.7558 25.9812 22.1171
Au 22.6125 25.8769 22.0795
Au 18.3014 14.575 24.4334
Au 16.8621 13.6958 22.1112
Au 21.2139 14.5583 24.4545
Au 19.7562 13.5895 22.1416
Au 22.6521 13.6759 22.1531
Pd 18.3344 24.9911 15.0935
Au 16.8953 25.8776 17.4033
Au 21.2286 24.9892 15.112
Au 19.7873 25.9679 17.3928
Pd 22.634 25.8761 17.4132
Au 18.3197 14.5712 15.0901
Au 16.8835 13.6866 17.4028
Au 21.2274 14.5628 15.0985
Au 19.7663 13.5869 17.3933
Au 22.641 13.6661 17.3987
Au 23.5912 15.9617 23.6314
Au 23.5768 23.5691 23.587
Au 23.5909 15.9498 15.9416
Pd 23.578 23.5982 15.9509
Pd 15.9235 15.9542 23.5943
Au 15.9148 23.5915 23.6055
Pd 15.9618 15.9462 15.9318
Au 15.95 23.596 15.9203
Au 28.9506 19.7493 14.1078
Pd 29.0869 19.7577 16.9202
Au 29.1205 19.7551 19.7668
Au 29.0857 19.7581 22.6225
Au 28.9435 19.7602 25.4532
Pd 10.5886 19.7403 14.0454
Au 10.4323 19.7425 16.8804
Au 10.3911 19.7302 19.7547
Au 10.4291 19.7311 22.6184
Au 10.5641 19.7399 25.4108
Au 14.0517 28.967 19.7698
Au 16.8949 29.111 19.7724
Au 19.7754 29.1325 19.7564
Au 22.6049 29.0847 19.7519
Au 25.4367 28.9482 19.7454
Au 14.1004 10.5552 19.7513
Au 16.9264 10.4133 19.7489
Au 19.7696 10.3899 19.7409
Au 22.6197 10.4299 19.7473
Au 25.464 10.5878 19.7542
Au 19.7361 14.123 28.9581
Pd 19.7428 16.9193 29.0783
Au 19.7426 19.7504 29.1178
Au 19.761 22.6008 29.0903
Au 19.7608 25.4329 28.9633
Au 19.7971 14.1209 10.6034
Pd 19.7968 16.9115 10.4816
Au 19.8103 19.7428 10.4538
Au 19.8174 22.6021 10.457
Pd 19.7827 25.4262 10.5534
Au 26.6976 18.2913 26.4346
Au 24.4288 16.862 27.3353
Pd 22.0938 15.4713 28.1956
Au 26.6786 21.2301 26.4545
Au 24.4236 19.7787 27.4277
Au 22.1053 18.3313 28.3073
Pd 24.4035 22.6571 27.3505
Au 22.1252 21.2108 28.305
Pd 22.1096 24.0652 28.1946
Au 26.7147 18.2859 13.1194
Pd 24.4269 16.8655 12.2202
Au 22.1302 15.4825 11.3746
Au 26.7199 21.2239 13.1034
Au 24.4385 19.7605 12.1099
Pd 22.1451 18.318 11.2392
Pd 24.4364 22.6558 12.182
Pd 22.1474 21.2039 11.2268
Pd 22.1331 24.0603 11.3384
Au 12.7758 18.3004 26.3991
Au 15.0774 16.8622 27.3311
Pd 17.408 15.4741 28.1868
Pd 12.7626 21.1939 26.4046
Au 15.0348 19.7634 27.4179
Au 17.3846 18.3143 28.3109
Au 15.037 22.6542 27.3204
Au 17.3598 21.1852 28.3148
Au 17.3767 24.0735 28.1938
Au 12.8217 18.2846 13.0898
Pd 15.1203 16.8562 12.194
Au 17.4529 15.4679 11.376
Au 12.8037 21.2 13.0784
Au 15.0906 19.7302 12.1008
Au 17.4291 18.2947 11.2388
Au 15.0957 22.6481 12.1748
Au 17.4249 21.1714 11.2227
Au 17.4354 24.0636 11.3174
Pd 26.4181 26.7383 18.2932
Pd 27.3266 24.4671 16.8731
Au 28.1896 22.1296 15.4753
Au 26.4078 26.7367 21.2085
Au 27.4036 24.4855 19.7524
Au 28.3075 22.1501 18.3227
Au 27.3084 24.4482 22.6553
Au 28.2992 22.1657 21.2107
Au 28.1647 22.1359 24.0854
Au 13.0622 26.7489 18.2977
Au 12.1739 24.444 16.8246
Au 11.3398 22.1011 15.4149
Pd 13.0765 26.7374 21.2206
Au 12.0671 24.4832 19.76
Au 11.1913 22.1364 18.3007
Au 12.1813 24.439 22.6737
Au 11.1849 22.1282 21.2031
Au 11.3361 22.0933 24.0806
Au 26.4366 12.8066 18.3029
Au 27.337 15.0909 16.87
Au 28.1805 17.4112 15.4672
Au 26.4406 12.8239 21.2572
Au 27.4295 15.0685 19.7932
Au 28.3104 17.3956 18.3318
Pd 27.332 15.0917 22.6926
Au 28.3016 17.3684 21.2281
Au 28.1735 17.3873 24.084
Au 13.1086 12.7769 18.2757
Au 12.2037 15.0583 16.8383
Au 11.3428 17.391 15.424
Au 13.1029 12.7841 21.2257
Au 12.0962 15.032 19.7625
Au 11.1979 17.3617 18.3186
Au 12.1826 15.0763 22.6654
Au 11.1943 17.3538 21.2102
Pd 11.3309 17.4023 24.0669
Au 18.2859 26.441 26.7288
Au 16.8448 27.356 24.4439
Pd 15.4195 28.2043 22.1253
Au 21.2051 26.4327 26.7321
Pd 19.741 27.4489 24.4642
Au 18.3135 28.3386 22.154
Au 22.6144 27.3531 24.4222
Pd 21.1853 28.3388 22.1273
Au 24.0435 28.1956 22.101
Au 18.2903 13.1441 26.7479
Au 16.8705 12.2003 24.4533
Au 15.4576 11.3377 22.1273
Au 21.2089 13.1264 26.7637
Au 19.7705 12.0971 24.4931
Au 18.3269 11.1978 22.1529
Pd 22.6667 12.1968 24.4777
Au 21.2163 11.2056 22.1595
Au 24.0909 11.3575 22.1537
Au 18.3301 26.42 12.7659
Au 16.8841 27.3395 15.047
Au 15.4399 28.2073 17.386
Au 21.2329 26.4153 12.77
Au 19.7827 27.4426 15.0455
Au 18.3443 28.3447 17.3645
Au 22.6547 27.3415 15.0845
Pd 21.2147 28.328 17.3826
Au 24.0613 28.1891 17.3906
Pd 18.3411 13.1205 12.7863
Au 16.8885 12.2051 15.0617
Au 15.4812 11.3366 17.3816
Au 21.2477 13.1373 12.8007
Au 19.7962 12.1066 15.0535
Au 18.3513 11.2038 17.3732
Pd 22.6767 12.2122 15.0757
Pd 21.2193 11.2135 17.3705
Au 24.074 11.3551 17.3853
Pd 25.9276 15.9148 25.061
Au 25.9033 23.5981 25.0713
Pd 25.0604 13.6109 23.648
Au 25.0219 25.9391 23.6122
Au 23.6217 14.4843 25.9548
Au 23.5912 25.0285 25.9597
Au 25.9195 15.9098 14.4863
Au 25.9264 23.6286 14.4859
Pd 25.0422 13.5959 15.9115
Au 25.0374 25.9418 15.9252
Pd 23.6137 14.4969 13.6007
Au 23.6158 25.0407 13.584
Pd 13.5663 15.9086 25.0514
Pd 13.5626 23.6025 25.0567
Au 14.4623 13.6082 23.6199
Au 14.4479 25.9396 23.6208
Au 15.8965 14.498 25.9436
Pd 15.8841 25.0547 25.9453
Au 13.6289 15.898 14.4571
Pd 13.5883 23.6072 14.4434
Pd 14.4955 13.5917 15.8961
Au 14.4578 25.9461 15.8728
Au 15.9444 14.4917 13.5964
Au 15.9295 25.0565 13.5648
Au 31.2529 19.7218 12.6818
Pd 31.3775 19.7418 15.4784
Au 31.4642 19.7329 18.3328
Au 31.488 19.718 21.1963
Au 31.4369 19.7544 24.0388
Au 31.2619 19.7498 26.8655
Au 8.31356 19.7373 12.6009
Au 8.12668 19.7262 15.4306
Pd 8.07959 19.7267 18.3191
Pd 8.07358 19.7301 21.1799
Pd 8.12722 19.736 24.0242
Pd 8.27506 19.7495 26.7916
Au 12.619 31.28 19.7467
Au 15.4555 31.4601 19.7537
Au 18.3352 31.5131 19.7519
Au 21.216 31.4883 19.7635
Pd 24.0681 31.3809 19.7703
Pd 26.8457 31.226 19.7645
Pd 12.7017 8.27135 19.7373
Au 15.5031 8.07696 19.741
Pd 18.3484 8.04784 19.7344
Au 21.1899 8.04191 19.7375
Au 24.0692 8.10622 19.7426
Au 26.8895 8.28773 19.7328
Au 19.716 12.6683 31.2566
Au 19.7086 15.4903 31.4114
Au 19.7227 18.3198 31.4776
Au 19.756 21.1978 31.4906
Au 19.7618 24.0405 31.4312
Pd 19.7661 26.8369 31.244
Pd 19.8083 12.7098 8.31784
Au 19.803 15.4912 8.15691
Pd 19.7958 18.323 8.1377
Au 19.7871 21.1629 8.0881
Au 19.8003 24.0144 8.1115
Au 19.7748 26.8367 8.25663
Au 29.0392 18.296 27.8789
Au 26.778 16.8331 28.8104
Au 24.4489 15.4162 29.6865
Au 22.0982 14.0243 30.5048
Au 29.0315 21.2283 27.8789
Au 26.7811 19.7835 28.9383
Au 24.4866 18.3311 29.8521
Au 22.1184 16.8929 30.6702
Au 26.7091 22.6981 28.8104
Pd 24.4655 21.2446 29.8113
Au 22.1535 19.7899 30.722
Pd 24.4121 24.082 29.6628
Pd 22.1388 22.6513 30.6374
Au 22.125 25.4958 30.5104
Au 29.0414 18.2617 11.6907
Pd 26.735 16.8382 10.7908
Pd 24.4414 15.4387 9.91662
Pd 22.1444 14.0583 9.07188
Au 29.0621 21.1976 11.6654
Au 26.7979 19.7232 10.637
Au 24.5067 18.2831 9.74701
Au 22.1641 16.8911 8.89494
Au 26.772 22.6538 10.7269
Au 24.4843 21.2023 9.71766
Au 22.1686 19.7522 8.85428
Au 24.4567 24.0742 9.83842
Pd 22.1675 22.627 8.8884
Au 22.1339 25.4742 9.02624
Au 10.4489 18.2994 27.8242
Au 12.7364 16.8591 28.789
Pd 15.0745 15.4297 29.6336
Au 17.3553 14.0325 30.4851
Au 10.4396 21.1863 27.8152
Pd 12.6882 19.7561 28.8661
Au 15.0001 18.3135 29.8164
Pd 17.3548 16.8678 30.6346
Au 12.7162 22.6224 28.7647
Pd 14.9773 21.2029 29.8069
Au 17.3148 19.7428 30.7358
Au 15.0247 24.0836 29.6826
Au 17.3261 22.6277 30.7045
Au 17.3837 25.5224 30.5397
Pd 10.5227 18.2887 11.649
Au 12.7991 16.8579 10.7314
Au 15.1321 15.4345 9.8561
Pd 17.4739 14.0555 9.04731
Pd 10.515 21.1618 11.6438
Au 12.7582 19.7308 10.6011
Pd 15.073 18.2974 9.73497
Au 17.4269 16.8856 8.87803
Au 12.7719 22.6205 10.6987
Pd 15.0616 21.176 9.72398
Au 17.3858 19.7314 8.8245
Au 15.075 24.0679 9.8099
Au 17.3888 22.5949 8.84603
Au 17.4108 25.4894 8.9869
Au 27.8567 29.0591 18.2964
Au 28.7783 26.7939 16.8697
Au 29.6863 24.4842 15.4438
Au 30.5377 22.1094 14.0314
Au 27.8431 29.086 21.238
Au 28.8864 26.8129 19.7717
Au 29.8315 24.5094 18.3328
Au 30.7083 22.1325 16.8959
Au 28.7845 26.7919 22.6757
Pd 29.8112 24.5203 21.2239
Au 30.7377 22.1674 19.7734
Au 29.6755 24.4764 24.1033
Au 30.6893 22.176 22.645
Au 30.523 22.1466 25.5326
Au 11.5991 29.0776 18.2768
Au 10.6771 26.7709 16.8086
Pd 9.83707 24.4194 15.3818
Au 9.02981 22.0893 13.9664
Au 11.6259 29.0425 21.212
Au 10.5568 26.8159 19.758
Au 9.64575 24.4945 18.2718
Au 8.81714 22.1267 16.8563
Au 10.7038 26.7418 22.6713
Au 9.6433 24.4841 21.2148
Au 8.76348 22.1125 19.7409
Pd 9.83768 24.4075 24.0834
Au 8.82507 22.1141 22.6378
Pd 9.0167 22.0723 25.4713
Pd 27.8653 10.4972 18.3084
Au 28.8187 12.7476 16.8899
Au 29.6978 15.0731 15.4318
Pd 30.4881 17.3989 14.0337
Au 27.8873 10.5084 21.211
Pd 28.881 12.7443 19.7799
Au 29.8467 15.0363 18.3634
Au 30.669 17.3818 16.8973
Au 28.8178 12.7989 22.67
Pd 29.7985 15.0391 21.2348
Pd 30.6938 17.357 19.7961
Pd 29.6603 15.0859 24.0859
Pd 30.6419 17.3657 22.6394
Au 30.5133 17.3817 25.488
Au 11.674 10.4287 18.2729
Au 10.7325 12.7201 16.8211
Au 9.8562 15.0294 15.3818
Au 9.04178 17.3811 13.9583
Au 11.665 10.4301 21.2157
Au 10.6062 12.6822 19.7483
Au 9.67147 15.0015 18.3094
Au 8.81849 17.3412 16.8683
Au 10.721 12.7303 22.6483
Pd 9.69012 15.0049 21.1952
Pd 8.79639 17.3524 19.7523
Au 9.8236 15.0837 24.0699
Au 8.82659 17.3578 22.6165
Pd 9.01309 17.4211 25.4659
Au 18.3013 27.8781 29.0652
Au 16.8362 28.8236 26.7818
Au 15.4056 29.7014 24.4672
Au 13.9736 30.5295 22.1357
Au 21.213 27.8651 29.064
Au 19.7571 28.9276 26.8045
Pd 18.2954 29.827 24.5043
Au 16.8642 30.7101 22.1796
Au 22.674 28.8092 26.7661
Au 21.1901 29.8483 24.4996
Au 19.7564 30.7517 22.1811
Pd 24.0749 29.6567 24.4358
Au 22.6548 30.6903 22.157
Pd 25.4827 30.4808 22.0935
Au 18.2557 11.6781 29.0395
Pd 16.8629 10.7732 26.7639
Au 15.4376 9.84037 24.4704
Au 14.0319 8.99423 22.1216
Au 21.1887 11.6411 29.0759
Au 19.7169 10.6136 26.8216
Pd 18.3018 9.69747 24.521
Au 16.9035 8.80071 22.1613
Au 22.6478 10.732 26.7906
Au 21.2051 9.67671 24.5154
Au 19.7594 8.77341 22.1617
Au 24.0958 9.85245 24.4748
Au 22.6585 8.81954 22.1619
Au 25.5356 9.01424 22.117
Au 18.3108 27.8533 10.446
Pd 16.8765 28.7659 12.7112
Au 15.4262 29.6844 15.0019
Au 13.9857 30.5393 17.3719
Pd 21.2208 27.8252 10.455
Au 19.7896 28.9064 12.6845
Au 18.3332 29.8587 14.9695
Au 16.8771 30.728 17.3282
Pd 22.6647 28.764 12.7448
Pd 21.2414 29.8175 15.0093
Au 19.7915 30.7549 17.3277
Au 24.1091 29.6699 15.0351
Au 22.6502 30.6947 17.3572
Au 25.5126 30.5228 17.399
Au 18.3516 11.7065 10.4643
Au 16.895 10.7504 12.7333
Au 15.4602 9.82855 15.0359
Au 14.0617 8.995 17.3791
Au 21.2695 11.7153 10.4718
Au 19.7971 10.6411 12.709
Au 18.3465 9.66764 15.0242
Pd 16.9212 8.84868 17.3686
Au 22.7046 10.7817 12.7548
Au 21.2417 9.69114 15.0298
Pd 19.7759 8.81696 17.3707
Au 24.124 9.87471 15.0535
Au 22.6499 8.855 17.3576
Pd 25.5222 9.05427 17.4027
Au 28.2677 15.8647 26.4928
Au 28.2603 23.6551 26.553
Pd 27.4331 13.5774 25.0737
Au 27.4085 25.9889 25.1154
Au 26.5365 11.2632 23.6637
Au 26.4838 28.3128 23.6466
Pd 25.9854 14.4454 27.4218
Pd 25.938 25.0558 27.4431
Au 25.1115 12.1082 25.9934
Au 25.0716 27.4288 26.003
Au 23.6412 13.0155 28.3011
Au 23.6309 26.4966 28.3029
Pd 28.2666 15.8907 13.0399
Au 28.3037 23.6581 13.0062
Au 27.4206 13.5477 14.4365
Au 27.4121 26.0098 14.4525
Au 26.5182 11.2574 15.8815
Pd 26.4855 28.2818 15.9079
Au 25.951 14.4555 12.1214
Au 25.9839 25.097 12.0852
Pd 25.0645 12.1491 13.5667
Pd 25.0689 27.4258 13.5633
Pd 23.627 13.0749 11.2809
Au 23.6388 26.514 11.2356
Au 11.2063 15.8841 26.4846
Au 11.2094 23.6115 26.4842
Au 12.0702 13.5147 25.0874
Pd 12.0629 25.9584 25.0739
Pd 13.021 11.2223 23.6262
Au 12.9713 28.2741 23.6256
Au 13.5301 14.4171 27.4365
Au 13.4932 25.0856 27.4198
Au 14.4379 12.0803 25.985
Au 14.3917 27.426 25.9877
Pd 15.8962 13.0457 28.273
Au 15.8487 26.5272 28.3022
Pd 11.2786 15.8938 12.9998
Au 11.2486 23.599 12.9747
Au 12.1297 13.5258 14.385
Au 12.0578 25.9729 14.3672
Au 13.0458 11.2236 15.8458
Au 12.9732 28.3132 15.8272
Au 13.5828 14.4248 12.0768
Au 13.555 25.086 12.0508
Pd 14.4816 12.1059 13.54
Au 14.4364 27.4388 13.4752
Au 15.9404 13.0339 11.2466
Pd 15.9224 26.4863 11.2084
Pd 33.4486 19.7048 11.3191
Au 33.6375 19.7148 14.0479
Pd 33.6557 19.7173 16.8709
Au 33.7444 19.7108 19.7567
Au 33.7446 19.7199 22.6426
Au 33.6785 19.741 25.5136
Au 33.4697 19.7432 28.2372
Au 6.09981 19.7327 11.2147
Au 5.89325 19.7235 13.9604
Pd 5.87654 19.7232 16.8491
Au 5.81796 19.7493 19.736
Au 5.83059 19.7501 22.6158
Au 5.86938 19.7462 25.4535
Au 6.04236 19.7519 28.1599
Au 11.2384 33.4914 19.7468
Au 13.973 33.7017 19.7498
Au 16.8668 33.7683 19.7447
Au 19.7922 33.7749 19.7649
Pd 22.6974 33.681 19.7842
Au 25.5147 33.6283 19.7853
Au 28.2207 33.4538 19.788
Au 11.3397 6.04197 19.7249
Au 14.043 5.85373 19.7247
Au 16.9119 5.78435 19.7176
Au 19.7789 5.77878 19.7213
Pd 22.6675 5.84593 19.7309
Au 25.5317 5.86833 19.7379
Au 28.2634 6.07607 19.7329
Au 19.7009 11.2948 33.4713
Au 19.7056 14.018 33.6635
Au 19.7258 16.8684 33.7379
Au 19.7483 19.7578 33.7605
Au 19.7675 22.654 33.7457
Au 19.773 25.5149 33.667
Au 19.7774 28.2168 33.4635
Au 19.8146 11.3332 6.08792
Au 19.8086 14.0503 5.90162
Pd 19.8037 16.8866 5.90404
Pd 19.7891 19.7239 5.87348
Au 19.777 22.5849 5.81789
Au 19.7834 25.45 5.84985
Au 19.7826 28.1883 6.02349
Pd 31.3317 18.3422 29.1984
Au 29.0907 16.8822 30.1739
Au 26.7518 15.4188 31.0989
Au 24.3731 13.9897 31.9562
Pd 21.9947 12.6003 32.7447
Pd 31.3238 21.1756 29.1917
Au 29.1472 19.7672 30.2964
Au 26.8455 18.2967 31.2721
Au 24.4612 16.8346 32.1565
Pd 22.0571 15.4151 32.9189
Pd 29.0096 22.6449 30.1315
Au 26.8028 21.2608 31.2579
Au 24.488 19.8115 32.192
Au 22.1055 18.3218 33.0424
Au 26.7032 24.1004 31.0767
Au 24.4502 22.6976 32.1118
Pd 22.1052 21.2464 32.9926
Au 24.3965 25.5083 31.9367
Pd 22.1051 24.1039 32.9095
Au 22.0603 26.923 32.7726
Au 31.3305 18.2951 10.3146
Pd 29.0183 16.8659 9.42995
Au 26.7275 15.4402 8.52132
Au 24.4277 14.0249 7.64449
Au 22.1124 12.6352 6.80326
Au 31.3548 21.1411 10.3001
Pd 29.1315 19.7214 9.30775
Au 26.8356 18.263 8.32866
Pd 24.4963 16.8256 7.48463
Au 22.1648 15.4402 6.59983
Pd 29.066 22.5918 9.39269
Pd 26.8249 21.1901 8.34987
Pd 24.492 19.7278 7.42736
Au 22.1394 18.3138 6.54638
Au 26.755 24.0384 8.43271
Au 24.4915 22.6214 7.39776
Pd 22.126 21.188 6.56951
Au 24.412 25.4752 7.555
Au 22.1412 24.0428 6.56258
Pd 22.0604 26.8603 6.76924
Pd 8.16626 18.3535 29.1471
Au 10.4175 16.8923 30.1395
Au 12.7878 15.4325 31.0478
Pd 15.1018 14.0178 31.8865
Au 17.3999 12.601 32.7597
Au 8.1388 21.1574 29.1729
Au 10.3521 19.7517 30.2532
Au 12.6557 18.2974 31.2264
Pd 15.0304 16.8335 32.058
Au 17.3437 15.4225 32.9446
Pd 10.4243 22.5838 30.0899
Au 12.6392 21.2029 31.2099
Au 14.9603 19.7523 32.1768
Au 17.3466 18.2721 33.0338
Pd 12.739 24.0357 31.0239
Au 14.9705 22.6537 32.1376
Au 17.3726 21.1985 33.0732
Au 15.0845 25.5077 31.9564
Au 17.3892 24.1091 33.0044
Au 17.4727 26.944 32.7984
Au 8.2421 18.3059 10.2405
Au 10.5266 16.8872 9.33842
Pd 12.8631 15.4555 8.48163
Au 15.1945 14.0258 7.59245
Au 17.5195 12.6332 6.77838
Au 8.23511 21.1477 10.24
Au 10.4431 19.7376 9.20995
Au 12.7679 18.2849 8.27662
Pd 15.1125 16.8556 7.45469
Au 17.4473 15.4407 6.58477
Pd 10.5048 22.5547 9.36305
Pd 12.7549 21.1891 8.31141
Pd 15.0716 19.7336 7.41501
Pd 17.4567 18.2931 6.56226
Au 12.7913 24.0206 8.41672
Pd 15.0719 22.6161 7.43014
Au 17.4146 21.158 6.50206
Au 15.1299 25.4601 7.52803
Pd 17.4434 24.0545 6.58931
Au 17.4751 26.884 6.69946
Au 29.2251 31.3616 18.364
Au 30.168 29.0868 16.912
Au 31.0759 26.776 15.4636
Au 31.9637 24.4068 14.0122
Au 32.7988 22.0279 12.6021
Au 29.2145 31.3707 21.2057
Pd 30.2243 29.1465 19.7832
Pd 31.1875 26.8444 18.3121
Au 32.1534 24.4968 16.8702
Au 32.9969 22.0735 15.4294
Au 30.1474 29.095 22.6575
Au 31.2265 26.8594 21.2308
Au 32.1823 24.5158 19.7942
Au 33.0673 22.0832 18.3288
Pd 31.0425 26.7554 24.0787
Au 32.1346 24.5179 22.6825
Pd 33.0204 22.0851 21.2277
Au 31.9499 24.4318 25.5289
Au 32.9938 22.1233 24.1115
Au 32.7933 22.0655 26.9532
Au 10.2351 31.382 18.3148
Au 9.29935 29.078 16.8484
Au 8.41147 26.7037 15.3733
Au 7.57702 24.3611 13.9443
Au 6.76931 22.0321 12.5288
Pd 10.2882 31.3303 21.1596
Au 9.17837 29.1578 19.7496
Au 8.21997 26.8294 18.2575
Au 7.35333 24.4567 16.7844
Pd 6.60143 22.0663 15.3499
Pd 9.35636 29.0227 22.609
Au 8.22261 26.8187 21.2211
Pd 7.33876 24.4547 19.7332
Au 6.47269 22.0792 18.2788
Au 8.41663 26.6949 24.0631
Au 7.347 24.4359 22.6682
Pd 6.51001 22.0702 21.1993
Au 7.56024 24.3471 25.4763
Pd 6.58707 22.0626 24.0853
Au 6.73685 22.0306 26.873
Au 29.2585 8.20969 18.3374
Au 30.1871 10.4583 16.9229
Au 31.1057 12.7785 15.4719
Au 31.9616 15.1208 14.0199
Au 32.7631 17.4204 12.626
Pd 29.2152 8.22134 21.1588
Pd 30.2437 10.4347 19.7557
Pd 31.2045 12.7046 18.333
Au 32.147 15.047 16.8825
Pd 32.8978 17.4083 15.4268
Au 30.1874 10.4912 22.6076
Au 31.2294 12.7232 21.2065
Au 32.1698 15.0297 19.8109
Pd 32.972 17.3895 18.3368
Au 31.1006 12.8143 24.0591
Pd 32.0696 15.0623 22.6736
Au 33.0135 17.3595 21.231
Au 31.9457 15.1175 25.4898
Pd 32.9118 17.3973 24.0932
Au 32.7775 17.4455 26.9205
Au 10.3324 8.12481 18.3089
Pd 9.41322 10.4205 16.8606
Au 8.47524 12.736 15.3849
Pd 7.62933 15.1057 13.9502
Au 6.78319 17.4214 12.5267
Au 10.3203 8.12509 21.1426
Au 9.23656 10.3302 19.7183
Pd 8.32542 12.6526 18.2489
Au 7.38529 14.9787 16.8019
Au 6.55808 17.3671 15.3688
Au 9.34891 10.4243 22.5992
Au 8.26788 12.6657 21.1856
Au 7.33382 15.0012 19.7373
Au 6.48117 17.383 18.299
Pd 8.46248 12.7879 24.0367
Au 7.3679 15.0175 22.6333
Au 6.47241 17.3971 21.1745
Au 7.55823 15.1357 25.4789
Au 6.54288 17.4042 24.069
Au 6.73874 17.4654 26.8764
Pd 18.363 29.1881 31.3501
Au 16.8935 30.1799 29.0971
Au 15.4171 31.1017 26.7683
Au 13.9681 31.9701 24.4205
Au 12.54 32.7998 22.065
Pd 21.1733 29.1813 31.3412
Au 19.7655 30.2915 29.1633
Pd 18.2858 31.2124 26.8421
Au 16.8324 32.1509 24.5329
Au 15.3848 33.0085 22.1352
Pd 22.6298 30.1303 29.0636
Au 21.2308 31.257 26.8575
Au 19.7378 32.192 24.5413
Au 18.3005 33.0824 22.1405
Au 24.1016 31.0608 26.7314
Au 22.7037 32.1342 24.5068
Au 21.2371 33.0627 22.1449
Pd 25.4972 31.8792 24.3606
Au 24.1314 32.9507 22.124
Pd 26.897 32.7074 22.0472
Pd 18.3034 10.3341 31.3195
Pd 16.8864 9.40512 29.0316
Pd 15.459 8.50952 26.7449
Au 14.0209 7.56559 24.4053
Pd 12.6318 6.76105 22.0101
Au 21.1366 10.2756 31.3774
Au 19.7167 9.22031 29.1545
Au 18.2639 8.29139 26.8502
Au 16.8533 7.37421 24.5205
Au 15.4345 6.51014 22.0987
Au 22.6062 9.34024 29.0861
Pd 21.1937 8.31878 26.8469
Au 19.7525 7.33255 24.5144
Au 18.3366 6.44337 22.0946
Pd 24.0473 8.47347 26.7347
Au 22.6737 7.37608 24.4995
Pd 21.2245 6.49944 22.0788
Pd 25.5092 7.6039 24.3764
Au 24.1205 6.53393 22.104
Au 26.9517 6.74608 22.0462
Au 18.3482 29.2066 8.12569
Au 16.8853 30.1403 10.4041
Au 15.4395 31.0429 12.7014
Pd 13.994 31.9211 15.0868
Au 12.5488 32.8048 17.4304
Au 21.2043 29.1928 8.14751
Au 19.7861 30.2723 10.3344
Au 18.29 31.2378 12.6126
Au 16.8298 32.1584 14.9609
Au 15.3867 33.0117 17.3653
Au 22.6483 30.1154 10.4377
Au 21.2592 31.2266 12.656
Au 19.7968 32.1973 14.9716
Au 18.3208 33.0862 17.3679
Au 24.1038 31.0427 12.7381
Au 22.6966 32.1386 15.0019
Au 21.2456 33.0774 17.3942
Au 25.5443 31.9392 15.0966
Au 24.1258 32.9833 17.4216
Au 26.9429 32.7843 17.4799
Au 18.3921 10.3412 8.17304
Pd 16.9578 9.43235 10.446
Au 15.4854 8.45905 12.7311
Au 14.0373 7.56081 15.0922
Pd 12.6524 6.7685 17.4596
Au 21.2368 10.342 8.18345
Pd 19.8036 9.32798 10.3714
Au 18.3351 8.29441 12.6506
Au 16.8761 7.36453 15.0323
Pd 15.4636 6.58866 17.3968
Pd 22.6652 9.44263 10.4657
Au 21.2722 8.30943 12.6597
Au 19.8022 7.32675 15.0359
Au 18.3438 6.49815 17.3839
Au 24.1199 8.49773 12.7498
Au 22.7213 7.38708 15.0297
Pd 21.2299 6.53815 17.4008
Au 25.5577 7.61614 15.1123
Pd 24.1417 6.62255 17.3993
Au 26.9499 6.7754 17.4396
Pd 30.5811 15.9635 27.878
Au 30.597 23.6061 27.9505
Au 29.7852 13.5822 26.475
Pd 29.7373 25.9408 26.4968
Au 28.906 11.2544 25.0536
Au 28.8454 28.3087 25.0858
Au 27.9522 8.92857 23.5773
Au 27.898 30.6189 23.6006
Au 28.3226 14.4602 28.8637
Au 28.2588 25.0806 28.8864
Au 27.461 12.1106 27.4182
Pd 27.3824 27.3918 27.442
Au 26.5061 9.74541 25.9647
Pd 26.4599 29.7471 25.9417
Au 25.9737 13.0113 29.7689
Pd 25.9106 26.4568 29.7516
Au 25.0475 10.6302 28.3086
Au 25.0624 28.8651 28.316
Au 23.5621 11.5835 30.629
Au 23.5866 27.9198 30.618
Au 30.5922 15.9207 11.625
Au 30.6326 23.5653 11.5826
Au 29.7707 13.5715 13.0214
Au 29.7679 25.9918 13.0317
Au 28.8983 11.2335 14.4749
Pd 28.8449 28.2905 14.5254
Au 27.9484 8.94341 15.9507
Au 27.9382 30.5958 15.9401
Au 28.2679 14.4697 10.6896
Au 28.3137 25.0468 10.6242
Pd 27.3876 12.1411 12.1203
Pd 27.4118 27.4176 12.121
Au 26.5107 9.8176 13.5405
Au 26.528 29.7309 13.5683
Pd 25.9197 13.0788 9.82187
Au 25.9733 26.4953 9.73484
Pd 25.0392 10.7543 11.2652
Au 25.0729 28.8536 11.2293
Au 23.626 11.6542 8.96622
Au 23.59 27.9036 8.90348
Au 8.87665 15.9435 27.8855
Au 8.87518 23.5525 27.8771
Au 9.71553 13.5524 26.4796
Au 9.71512 25.9295 26.4706
Au 10.64 11.1795 25.0287
Au 10.6115 28.282 25.0443
Au 11.607 8.88669 23.5732
Au 11.5508 30.5983 23.5798
Au 11.1946 14.455 28.8699
Au 11.1715 25.0288 28.8548
Au 12.0856 12.046 27.441
Au 12.0344 27.4352 27.4172
Au 13.0274 9.73867 25.9579
Pd 13.0072 29.7547 25.9218
Au 13.5791 13.0125 29.7627
Au 13.5161 26.5009 29.7786
Pd 14.5098 10.6949 28.2817
Au 14.4358 28.9033 28.3089
Au 15.9065 11.6044 30.5738
Au 15.9253 27.9489 30.6351
Au 8.98708 15.9193 11.5512
Pd 8.96669 23.4923 11.5767
Au 9.80185 13.5539 12.9649
Au 9.73284 25.8989 12.9461
Pd 10.7039 11.2244 14.4553
Au 10.5967 28.2977 14.3995
Au 11.6351 8.89226 15.9029
Au 11.5515 30.6343 15.8911
Pd 11.2939 14.4976 10.6563
Pd 11.2602 24.9693 10.6232
Au 12.1421 12.0736 12.0512
Au 12.0857 27.4215 12.0045
Au 13.0618 9.76089 13.5151
Au 13.0123 29.7764 13.4831
Au 13.6321 13.0198 9.73729
Au 13.5871 26.4737 9.70111
Pd 14.5484 10.6982 11.2277
Pd 14.5164 28.8248 11.173
Pd 16.0349 11.6621 8.94362
Au 15.9409 27.8936 8.87652
