923
Atoms. Timestep: 20315
Au 18.9285 19.6862 19.8353
Au 21.3517 19.7195 18.4051
Au 21.366 19.6898 21.2403
Au 16.5298 19.7351 18.3829
Au 16.7011 19.7503 21.4214
Au 17.4454 21.9763 19.82
Au 20.4645 21.9632 19.8
Au 17.4214 17.396 19.832
Au 20.4499 17.4243 19.8434
Au 19.0007 18.2369 22.1883
Au 19.0942 21.0915 22.1759
Au 18.9955 18.2849 17.5263
Au 18.968 21.1093 17.4992
Pd 23.7699 19.7499 17.0086
Au 23.8208 19.7307 19.7964
Au 23.7899 19.7038 22.6358
Pd 14.5356 19.7419 16.405
Au 14.1799 19.823 20.3042
Au 14.5076 19.8075 23.2144
Pd 16.0614 24.2519 19.8902
Au 19.0679 24.3232 19.8231
Au 22.0184 24.2457 19.7686
Pd 15.9078 15.103 19.9071
Au 19.0225 15.0697 19.7959
Au 22.0184 15.1606 19.8249
Au 19.0919 16.8051 24.558
Au 19.2712 19.6801 24.6156
Au 19.3233 22.5304 24.51
Au 19.2578 16.8943 15.1854
Au 19.1944 19.715 15.0943
Au 19.1148 22.5689 15.155
Au 21.4821 18.2255 23.6215
Au 21.5764 21.1123 23.6195
Au 21.5217 18.3085 16.0455
Au 21.4721 21.1858 16.0566
Au 16.8264 18.3769 23.9671
Au 16.8854 21.1856 23.9072
Pd 16.8459 18.3092 15.8601
Au 16.76 21.1864 15.7775
Pd 22.9229 22.0276 18.3684
Au 22.9588 22.0132 21.212
Au 15.1841 22.0376 17.974
Au 15.3003 22.1021 21.6697
Au 22.9523 17.4289 18.3891
Au 22.9372 17.3878 21.2636
Au 15.2691 17.4123 18.0479
Au 15.3893 17.4136 21.7322
Au 17.7478 23.489 22.1896
Au 20.6667 23.4343 22.1507
Au 17.6501 15.8121 22.1522
Au 20.57 15.9156 22.1951
Au 17.6364 23.518 17.497
Au 20.5833 23.4513 17.4653
Au 17.6215 15.8896 17.4852
Au 20.6267 15.9846 17.474
Au 26.1946 19.7714 15.615
Au 26.2587 19.7494 18.386
Au 26.2669 19.7318 21.2073
Au 26.1981 19.7083 24.0084
Au 12.1324 19.4916 14.9333
Au 12.7572 19.0049 18.2251
Au 11.9729 20.151 22.1137
Pd 12.3121 19.9185 25.0259
Au 14.8417 26.6374 20.0231
Au 17.7667 26.6954 19.8874
Pd 20.6904 26.6413 19.819
Au 23.5686 26.5325 19.7469
Au 14.8885 12.5179 19.6003
Au 17.7389 12.6876 19.7719
Au 20.703 12.7377 19.7564
Au 23.6196 12.8955 19.8011
Pd 19.1824 15.3462 26.8729
Pd 19.413 18.2626 26.9492
Pd 19.5257 21.1466 26.9355
Au 19.6145 24.0081 26.8214
Pd 19.5737 15.4716 12.854
Pd 19.4685 18.2893 12.7573
Pd 19.3423 21.1675 12.7537
Au 19.2674 23.9951 12.8256
Pd 23.9246 18.2409 24.9894
Au 21.5922 16.7987 25.9617
Pd 24.0057 21.1331 25.0034
Pd 21.7337 19.6868 26.0063
Au 21.829 22.5629 25.9506
Au 23.9754 18.3256 14.636
Au 21.7731 16.8875 13.6861
Au 23.8969 21.2181 14.6425
Au 21.6643 19.7637 13.6231
Au 21.6066 22.6189 13.6882
Au 14.5995 18.459 25.7379
Au 16.9307 17.0092 26.4068
Au 14.6906 21.2908 25.7123
Pd 17.0833 19.8233 26.3755
Au 17.1357 22.6752 26.2711
Au 14.7201 18.1857 14.089
Pd 17.1472 16.8434 13.4836
Au 14.4726 21.0448 14.0201
Au 16.982 19.7176 13.3889
Au 16.7569 22.7275 13.4237
Au 24.4777 24.3306 18.3441
Au 25.3402 22.08 16.9635
Pd 24.5067 24.3149 21.1955
Au 25.4049 22.0687 19.7881
Pd 25.391 22.0263 22.6209
Au 11.0613 23.5462 18.3331
Au 12.4855 21.5814 17.0183
Au 13.9929 24.5045 21.9038
Au 13.3468 22.5405 19.8211
Au 13.1796 22.2494 23.5663
Au 24.5473 15.1409 18.3709
Pd 25.3956 17.4481 16.9761
Au 24.5269 15.1061 21.2721
Au 25.432 17.4061 19.8107
Au 25.3853 17.3735 22.6724
Au 14.145 14.9648 17.789
Au 13.2208 17.1941 16.1868
Pd 13.9714 15.0999 22.0915
Au 13.421 16.9507 20.0204
Au 13.1789 17.4326 23.4409
Au 18.0562 25.0062 24.5762
Au 16.4559 25.8846 22.2792
Au 20.9199 24.9176 24.4896
Au 19.3568 25.8939 22.1991
Au 22.2273 25.7576 22.1157
Au 17.9231 14.265 24.4531
Au 16.2624 13.4272 22.1341
Au 20.768 14.4984 24.5503
Au 19.2579 13.4251 22.1195
Au 22.178 13.6204 22.1881
Pd 17.8676 25.026 15.1357
Au 16.3959 25.9433 17.5263
Au 20.7389 24.9117 15.1369
Au 19.2771 25.8986 17.4816
Pd 22.1402 25.7734 17.4461
Au 18.0301 14.4535 15.0681
Au 16.4434 13.4273 17.364
Au 20.9295 14.5558 15.1055
Au 19.3423 13.535 17.4072
Au 22.2624 13.6882 17.4242
Au 23.1086 15.8988 23.6413
Au 23.1825 23.458 23.5874
Au 23.1793 15.9739 16.0093
Pd 23.0509 23.52 16.0267
Pd 15.6766 15.918 24.0938
Au 15.6288 23.6586 24.0555
Pd 15.635 15.8402 15.6055
Au 15.4453 23.7025 15.7912
Au 28.6222 19.7894 14.2067
Pd 28.707 19.775 16.9838
Au 28.7322 19.7455 19.7753
Au 28.7253 19.7215 22.5765
Au 28.6521 19.7017 25.3683
Pd 10.1806 19.2231 12.9997
Au 10.3513 19.3791 17.1842
Au 10.8828 18.3314 20.2012
Au 9.75254 20.55 24.233
Au 10.0457 19.6249 26.6337
Au 13.5185 28.9553 20.1229
Au 16.4912 29.1008 20.0217
Au 19.4175 29.0528 19.9095
Au 22.2706 28.965 19.8287
Au 25.129 28.8325 19.7623
Au 13.6262 9.85528 19.6844
Au 16.6952 10.1914 19.5217
Au 19.518 10.2794 19.6128
Au 22.3649 10.4198 19.7107
Au 25.2341 10.6322 19.7558
Au 19.3417 13.8921 29.1821
Pd 19.5896 16.8453 29.2487
Au 19.7267 19.7574 29.3012
Au 19.8414 22.6585 29.2695
Au 19.9285 25.5171 29.1388
Au 19.8968 14.0344 10.502
Pd 19.7829 16.8457 10.4187
Au 19.6783 19.6976 10.4011
Au 19.563 22.5816 10.4009
Pd 19.4695 25.399 10.5054
Au 26.3714 18.2247 26.3611
Au 24.0996 16.7946 27.314
Pd 21.7454 15.3709 28.2589
Au 26.4346 21.1598 26.3872
Au 24.1922 19.7146 27.391
Au 21.9051 18.2687 28.3481
Pd 24.2703 22.611 27.3361
Au 22.0359 21.1872 28.3506
Pd 22.1178 24.0661 28.2589
Au 26.4163 18.3229 13.2158
Pd 24.2337 16.8842 12.2803
Au 22.074 15.4599 11.367
Au 26.3474 21.2389 13.2182
Au 24.1318 19.7742 12.2157
Pd 21.9672 18.3018 11.284
Pd 24.0653 22.6525 12.2738
Pd 21.8606 21.1928 11.2753
Pd 21.7841 24.0444 11.3649
Au 12.5224 18.7324 27.6956
Au 15.0174 16.0343 30.7531
Pd 17.0825 15.648 28.7971
Pd 12.4917 21.4633 27.5542
Au 14.9495 20.0296 28.1736
Au 17.2734 18.4591 28.7915
Au 14.9647 22.8717 28.0683
Au 17.366 21.3372 28.7521
Au 17.4493 24.2177 28.584
Au 12.5954 17.9312 12.3438
Pd 15.0816 16.6187 11.7264
Au 17.4871 15.3364 11.1234
Au 12.1215 23.434 11.709
Au 14.8472 19.429 11.5672
Au 17.3349 18.1907 11.01
Au 14.6868 22.2132 11.4372
Au 17.191 21.0968 10.9861
Au 17.0269 24.0776 11.0314
Pd 26.0428 26.6374 18.322
Pd 26.929 24.3998 16.9302
Au 27.8015 22.1165 15.5536
Au 26.0739 26.6203 21.1834
Au 26.9891 24.3841 19.7523
Au 27.8719 22.0996 18.3539
Au 26.9742 24.3425 22.5961
Au 27.8887 22.0892 21.1781
Au 27.8418 22.048 24.0061
Au 13.9988 24.5878 18.0251
Au 12.2939 24.3706 15.9151
Au 10.547 24.6073 13.6382
Pd 12.7362 26.9671 22.0963
Au 11.4094 22.9515 21.6393
Au 11.0966 20.984 19.5045
Au 13.5612 23.8599 25.8804
Au 9.16422 20.4732 21.7098
Au 11.1112 22.5179 25.4221
Au 26.1547 12.8627 18.3486
Au 27.0081 15.1511 16.9527
Au 27.839 17.4627 15.5627
Au 26.1284 12.8537 21.2371
Au 27.053 15.1111 19.8171
Au 27.9013 17.4312 18.3855
Pd 26.991 15.0958 22.6498
Au 27.9043 17.379 21.2154
Au 27.8254 17.3602 24.0191
Au 13.0283 12.4443 17.5285
Au 12.0675 14.6357 15.9567
Au 11.1263 16.88 14.4227
Au 13.3201 12.525 21.8635
Au 12.4846 14.2895 19.8356
Au 11.4318 16.4044 18.1787
Au 13.7575 15.8601 25.9892
Au 11.3739 16.0586 21.6734
Pd 11.5089 17.3466 25.6534
Au 18.3608 26.5262 26.9269
Au 16.7935 27.4447 24.6862
Pd 15.1966 28.2856 22.4084
Au 21.2077 26.4187 26.819
Pd 19.6376 27.4199 24.5682
Au 18.0757 28.3052 22.3123
Au 22.4714 27.2724 24.4626
Pd 20.9352 28.2339 22.2054
Au 23.7891 28.0758 22.121
Au 18.2049 12.657 26.7336
Au 16.7432 11.722 24.3555
Au 15.399 10.7992 21.9119
Au 20.9769 13.0708 26.8565
Au 19.64 11.9213 24.4474
Au 18.1284 10.8769 22.0273
Pd 22.4628 12.2006 24.5221
Au 20.9426 11.0543 22.0933
Au 23.794 11.3375 22.1511
Au 18.1814 26.5668 12.7666
Au 16.7259 27.555 15.1822
Au 12.9002 27.1886 17.9628
Au 20.9585 26.3672 12.7994
Au 19.5164 27.4253 15.16
Au 18.0622 28.3854 17.5446
Au 22.338 27.279 15.1184
Pd 20.8736 28.249 17.4999
Au 23.7068 28.0962 17.4081
Pd 18.3869 12.9795 12.6727
Au 16.8588 11.9627 14.9069
Au 15.2893 10.8679 17.1874
Au 21.2317 13.1247 12.766
Au 19.7124 12.0627 15.0019
Au 18.1742 11.0706 17.2576
Pd 22.5578 12.2481 15.0663
Pd 21.0261 11.2095 17.3328
Au 23.877 11.4179 17.3891
Pd 25.577 15.8813 25.0089
Au 25.6307 23.4908 25.0033
Pd 24.7368 13.6093 23.6121
Au 24.7459 25.8111 23.5762
Au 23.315 14.4634 25.9674
Au 23.4366 24.9458 25.9488
Au 25.6277 15.9802 14.5872
Au 25.5111 23.5722 14.5898
Pd 24.7849 13.6729 15.974
Au 24.6318 25.8385 16.0072
Pd 23.4407 14.5437 13.6524
Au 23.2339 24.9593 13.6699
Pd 14.7586 17.2016 28.2858
Pd 11.5341 24.1242 27.6258
Au 14.4158 13.4496 24.3085
Au 14.3627 26.1264 24.2152
Au 16.088 14.4028 26.4769
Pd 15.9273 25.2378 26.418
Au 13.5734 15.5886 13.8057
Pd 13.9126 23.7266 13.6671
Pd 14.4906 13.3137 15.3634
Au 14.2536 26.2859 15.6254
Au 15.9775 14.2833 13.2332
Au 15.7976 25.5616 13.3507
Au 31.0125 19.8013 12.7957
Pd 31.0818 19.7986 15.5631
Au 31.147 19.7685 18.3588
Au 31.184 19.7275 21.1574
Au 31.1732 19.7315 23.9452
Au 31.0753 19.704 26.7365
Au 6.75822 17.6593 13.642
Au 6.33884 21.1718 18.8748
Pd 8.55208 19.8091 19.255
Pd 8.38872 17.7618 20.9611
Pd 6.42978 18.1345 19.0104
Pd 7.23602 21.1718 23.6105
Au 11.8313 31.4956 16.0477
Au 14.037 33.8793 20.2856
Au 18.1529 31.4997 19.9912
Au 21.0214 31.4188 19.9011
Pd 23.8651 31.2809 19.8417
Pd 26.641 31.1173 19.774
Pd 11.6912 10.4289 22.0646
Au 15.4934 7.83904 19.2512
Pd 18.3189 7.83847 19.3602
Au 21.1314 7.95682 19.514
Au 23.9797 8.12924 19.6655
Au 26.7977 8.36378 19.7087
Au 19.6029 12.3879 31.5347
Au 19.8371 15.4682 31.5665
Au 19.9874 18.3852 31.6793
Au 20.0838 21.3192 31.694
Au 20.1561 24.1881 31.6278
Pd 20.2383 27.0068 31.4312
Pd 20.1727 12.5914 8.15851
Au 20.0659 15.3805 8.04382
Pd 19.9821 18.2187 8.04555
Au 19.9052 21.066 7.99159
Au 19.8139 23.9318 8.01676
Au 16.9686 27.8524 8.25025
Au 28.8479 18.2534 27.7625
Au 26.6088 16.8024 28.7317
Au 24.3052 15.3786 29.6605
Au 21.9497 13.9322 30.5393
Au 28.8988 21.1754 27.7648
Au 26.6781 19.7359 28.8382
Au 24.4329 18.2982 29.801
Au 22.1385 16.8672 30.6993
Au 26.6973 22.6564 28.7267
Pd 24.504 21.2298 29.7656
Au 22.2763 19.8146 30.7581
Pd 24.5421 24.0859 29.6386
Pd 22.3442 22.7013 30.6819
Au 22.4178 25.5624 30.5708
Au 28.8456 18.3367 11.805
Pd 26.6498 16.8953 10.8744
Pd 24.4939 15.4582 9.95587
Pd 22.3523 14.0208 9.02716
Au 28.8024 21.2523 11.7965
Au 26.611 19.7714 10.7712
Au 24.4405 18.2995 9.8491
Au 22.2592 16.8477 8.9141
Au 26.528 22.6829 10.8507
Au 24.3336 21.2144 9.83454
Au 22.1747 19.71 8.90379
Au 24.249 24.0833 9.9268
Pd 22.0828 22.5989 8.93054
Au 21.9562 25.4716 9.03639
Au 10.4883 19.4075 29.2869
Au 12.5833 17.6466 30.3135
Pd 14.7415 13.3153 30.9303
Au 17.3449 14.3328 31.1701
Au 10.6599 21.7285 30.5592
Pd 12.9284 20.3733 30.0392
Au 15.1726 18.7942 30.6562
Pd 17.5378 17.1517 31.1987
Au 12.8305 23.2259 29.853
Pd 15.2556 21.6495 30.5959
Au 17.607 20.0073 31.2329
Au 15.3549 24.4828 30.3813
Au 17.6861 22.8914 31.149
Au 17.7999 25.7806 30.9329
Pd 10.4667 17.6015 10.66
Au 12.9843 16.3756 10.02
Au 15.3896 15.0966 9.3478
Pd 17.7795 13.85 8.73793
Pd 12.4083 20.6735 12.097
Au 12.656 19.1264 9.70341
Pd 15.2061 17.9196 9.21629
Au 17.6437 16.6817 8.6106
Au 12.5257 21.867 9.47369
Pd 15.087 20.6639 9.11423
Au 17.5336 19.4947 8.539
Au 14.9482 23.3983 8.91393
Au 17.437 22.3004 8.51291
Au 17.3363 25.1086 8.50805
Au 27.5819 28.955 18.3143
Au 28.4625 26.7209 16.9095
Au 29.3678 24.4608 15.509
Au 30.241 22.1452 14.1257
Au 27.6201 28.9655 21.1988
Au 28.5657 26.703 19.7535
Au 29.4702 24.4412 18.3435
Au 30.3517 22.1326 16.9432
Au 28.5485 26.6807 22.5989
Pd 29.4935 24.4285 21.167
Au 30.378 22.132 19.7571
Au 29.4422 24.3801 23.9978
Au 30.3772 22.1132 22.5682
Au 30.3107 22.0744 25.4079
Au 12.2213 25.2635 19.9959
Au 6.74491 26.5381 19.5123
Pd 11.9125 22.1586 14.4325
Au 10.6812 25.7569 11.0058
Au 9.75355 30.0108 20.0989
Au 6.87072 23.8269 18.982
Au 9.18053 25.4002 19.4637
Au 7.7435 22.8447 13.9241
Au 13.0949 28.5801 24.3474
Au 10.226 25.543 21.9226
Au 8.93719 21.9448 17.8136
Pd 11.8955 24.7503 23.8343
Au 6.55275 19.7143 21.2578
Pd 9.02182 22.834 20.384
Pd 27.7202 10.5946 18.3239
Au 28.6202 12.8503 16.9429
Au 29.4671 15.1701 15.5223
Pd 30.2411 17.485 14.1446
Au 27.7187 10.5819 21.1691
Pd 28.6386 12.8399 19.78
Au 29.5417 15.1245 18.3923
Au 30.3465 17.4531 16.9642
Au 28.6069 12.8565 22.6018
Pd 29.5045 15.1044 21.197
Pd 30.362 17.4047 19.793
Pd 29.4229 15.1126 23.9971
Pd 30.3345 17.39 22.574
Au 30.2725 17.3699 25.3771
Au 11.8673 9.92477 17.4155
Au 10.8656 12.1012 15.7444
Au 9.9364 14.2373 14.1326
Au 8.96548 16.5345 12.7205
Au 11.6763 12.3442 24.0998
Au 11.5446 11.7003 19.6826
Au 10.4119 13.6453 18.0262
Au 9.45098 15.7001 16.3502
Au 10.1388 12.0429 26.2294
Pd 10.5984 13.3646 21.7686
Pd 9.48505 15.2762 19.9389
Au 12.0599 15.9929 28.1916
Au 11.7413 15.054 24.1505
Pd 9.79975 17.2591 27.7617
Au 18.6777 28.0568 29.2964
Au 17.098 29.0023 27.0567
Au 15.5349 29.875 24.8079
Au 13.9192 30.6611 22.5079
Au 21.4985 27.932 29.1505
Au 19.9337 28.9676 26.925
Pd 18.3642 29.8704 24.6785
Au 16.8057 30.7457 22.4285
Au 22.7753 28.7948 26.7979
Au 21.1978 29.8018 24.5716
Au 19.6681 30.6998 22.3201
Pd 24.0303 29.584 24.4473
Au 22.5276 30.5929 22.2168
Pd 25.3328 30.3678 22.1053
Au 18.5278 11.1226 29.0032
Pd 17.2559 10.0334 26.6071
Au 15.9154 9.08102 24.337
Au 14.0433 8.5159 22.2284
Au 21.2344 11.5983 29.1275
Au 19.9854 10.3375 26.7621
Pd 18.6488 9.35911 24.3294
Au 16.8384 8.28041 21.8005
Au 22.7576 10.7499 26.8353
Au 21.3996 9.60979 24.4574
Au 19.6474 8.44879 21.8985
Au 24.1581 9.9106 24.4877
Au 22.5111 8.68508 22.0699
Au 25.3918 9.03345 22.0911
Au 21.1416 27.7961 10.4848
Pd 16.959 29.093 12.844
Au 15.2698 28.4359 17.6029
Au 10.6562 29.5432 14.6371
Pd 21.2694 29.0825 8.18019
Au 19.9048 30.4257 10.5691
Au 18.3173 29.9711 15.154
Au 15.5324 33.2475 17.8819
Pd 19.7612 28.9387 12.8547
Pd 21.093 29.787 15.1804
Au 19.6019 30.7606 17.5218
Au 23.9037 29.6697 15.0349
Au 22.4348 30.614 17.4929
Au 25.2604 30.4143 17.4502
Au 18.6817 11.5408 10.2612
Au 17.1861 10.5023 12.4528
Au 15.6873 9.4794 14.6635
Au 14.1783 8.33621 16.897
Au 21.5165 11.6809 10.3908
Au 20.0088 10.581 12.5804
Au 18.5151 9.54775 14.8016
Pd 17.0305 8.6005 17.0037
Au 22.8359 10.8067 12.7113
Au 21.3372 9.70288 14.9322
Pd 19.8217 8.74086 17.154
Au 24.1596 9.94159 15.0265
Au 22.6484 8.89548 17.2722
Pd 25.4749 9.13771 17.3779
Au 28.0398 15.8721 26.3938
Au 28.1072 23.561 26.4239
Pd 27.2314 13.6174 24.9932
Au 27.238 25.8698 25.0083
Au 26.3903 11.3286 23.5871
Au 26.3189 28.183 23.5872
Pd 25.8121 14.467 27.3675
Pd 25.8961 24.9819 27.3484
Au 25.0252 12.1772 25.9606
Au 25.018 27.3327 25.9439
Au 23.5532 13.0328 28.3081
Au 23.7317 26.4671 28.2778
Pd 28.0775 15.9863 13.1505
Au 27.9905 23.6438 13.1279
Au 27.2596 13.6695 14.5326
Au 27.0861 25.9342 14.5537
Au 26.4049 11.3747 15.9288
Pd 26.172 28.1829 15.9776
Au 25.8741 14.5475 12.2161
Au 25.7038 25.0494 12.2064
Pd 25.0324 12.2479 13.6152
Pd 24.8038 27.3223 13.6646
Pd 23.6972 13.1195 11.3062
Au 23.4336 26.4414 11.3186
Au 12.2358 12.1913 31.0994
Au 8.39135 22.5383 25.7458
Au 12.6739 13.3643 26.4639
Pd 14.6472 27.7396 26.5594
Pd 13.7739 10.697 24.2041
Au 11.3818 29.3126 22.1496
Au 14.2362 14.4453 28.5221
Au 9.8408 21.9487 27.9852
Au 15.1087 11.8017 26.5886
Au 13.3805 30.1999 26.6336
Pd 16.4895 12.9355 28.8638
Au 16.2129 26.8268 28.7704
Pd 11.4366 15.3151 12.0711
Au 9.97348 21.9639 12.6376
Au 12.3661 13.0112 13.5449
Au 11.53 26.9916 15.0233
Au 13.2867 10.7788 15.1649
Au 10.9729 29.2428 17.5493
Au 13.8496 14.0154 11.4296
Au 12.7452 26.0724 12.8345
Pd 14.7684 11.738 12.9994
Au 15.8246 27.3376 11.0144
Au 16.2535 12.7608 10.8441
Pd 14.8409 26.1153 8.76518
Pd 33.2506 19.8207 11.4497
Au 33.4022 19.8056 14.1621
Pd 33.3947 19.7906 16.9364
Au 33.4919 19.7581 19.7379
Au 33.5145 19.7356 22.5505
Au 33.4923 19.717 25.3648
Au 33.3391 19.6929 28.0728
Au 7.38174 19.9378 16.6615
Au 8.08508 18.815 11.4125
Pd 8.91443 18.1874 15.1925
Au 8.64918 28.034 18.4605
Au 8.61569 27.617 21.3098
Au 10.4488 18.0939 23.1912
Au 8.98544 16.7407 25.1643
Au 13.203 30.7172 13.7159
Au 14.2356 32.2146 24.8322
Au 16.8846 33.8598 20.1699
Au 19.7365 33.7795 20.0152
Pd 22.5823 33.6188 19.9114
Au 25.3819 33.5405 19.8448
Au 28.0797 33.3438 19.7871
Au 11.0009 9.67728 24.5748
Au 12.8437 7.16216 20.3027
Au 16.9814 5.52543 19.0419
Au 19.8962 5.58222 19.2653
Pd 22.7415 5.78621 19.4634
Au 25.5493 5.9096 19.6319
Au 28.2624 6.17529 19.6983
Au 17.6457 13.0575 33.4851
Au 22.1106 12.5345 32.7456
Au 20.3123 16.9707 33.9396
Au 20.3789 19.9232 33.9793
Au 20.3945 22.838 33.9635
Au 20.4373 25.7257 33.8676
Au 20.506 28.4555 33.6402
Au 20.3878 11.1956 5.90316
Au 20.3026 13.9271 5.74207
Pd 20.2508 16.758 5.77851
Pd 20.2064 19.587 5.75515
Au 20.1376 22.4407 5.68354
Au 19.9718 25.3831 5.7763
Au 22.0003 26.8828 6.76316
Pd 31.2086 18.2982 29.0507
Au 29.0168 16.8495 30.0608
Au 26.7405 15.3923 31.022
Au 24.4224 13.9318 31.9124
Pd 21.3604 10.2523 31.3371
Pd 31.2462 21.1368 29.0481
Au 29.1168 19.731 30.1743
Au 26.891 18.2713 31.1826
Au 24.6197 16.8132 32.1114
Pd 22.3433 15.3907 32.9323
Pd 29.0681 22.6205 30.0059
Au 26.943 21.235 31.157
Au 24.7326 19.8111 32.1377
Au 22.5171 18.3653 33.0768
Au 26.9251 24.1017 30.9865
Au 24.7655 22.7195 32.0629
Pd 22.5585 21.3263 33.0295
Au 24.7811 25.5571 31.9116
Pd 22.5957 24.195 32.9643
Au 22.6344 27.0454 32.8325
Au 31.1855 18.3993 10.4308
Pd 28.987 16.9547 9.52905
Au 26.8466 15.5023 8.5841
Au 24.7078 14.0454 7.65414
Au 22.5507 12.5886 6.72991
Au 31.1471 21.239 10.4325
Pd 28.9913 19.8057 9.43399
Au 26.8441 18.3335 8.43737
Pd 24.6635 16.8594 7.55098
Au 22.5148 15.3975 6.57257
Pd 28.8813 22.6632 9.52884
Pd 26.7423 21.235 8.4768
Pd 24.5909 19.7414 7.53066
Au 22.4402 18.2619 6.56136
Au 26.6399 24.0893 8.55626
Au 24.5165 22.6378 7.49976
Pd 22.3619 21.135 6.61018
Au 24.349 25.5023 7.63219
Au 22.2509 24.0166 6.58251
Pd 19.5965 26.7867 8.25145
Pd 7.85425 18.5659 23.4635
Au 13.087 21.9926 32.2919
Au 13.2057 16.4299 32.7433
Pd 15.4761 14.8169 33.1648
Au 20.1045 14.0768 33.7831
Au 6.57513 22.3746 21.3692
Au 11.015 23.9345 31.85
Au 13.2212 19.1755 32.4996
Pd 15.5851 17.593 33.0648
Au 17.9014 15.8496 33.5809
Pd 9.81278 24.9351 25.6415
Au 13.4153 24.8237 32.1747
Au 15.5475 20.3886 33.0398
Au 17.9862 18.6801 33.6159
Pd 11.8147 25.8097 30.0156
Au 15.5733 23.1849 32.9199
Au 17.993 21.5529 33.5773
Au 15.7751 26.0401 32.68
Au 18.0273 24.44 33.4518
Au 18.1618 27.2835 33.1922
Au 7.86489 21.5668 11.2566
Au 10.96 16.1612 8.41846
Pd 13.3001 14.9101 7.72233
Au 15.6768 13.6435 7.04687
Au 18.0464 12.3986 6.4403
Au 8.53149 24.327 11.8518
Au 10.2106 20.3427 10.382
Au 13.1401 17.6415 7.47992
Pd 15.5283 16.427 6.90981
Au 17.9096 15.2002 6.26647
Pd 10.0812 23.0567 10.063
Pd 13.1592 20.3982 7.30731
Pd 15.4834 19.1653 6.79193
Pd 17.8811 18.0044 6.24844
Au 13.0285 23.1428 7.05549
Pd 15.4206 21.9118 6.65668
Au 17.8189 20.7902 6.12367
Au 15.2821 24.6822 6.43994
Pd 17.7482 23.6119 6.15147
Au 18.4553 28.0569 10.5107
Au 29.0282 31.2463 18.3556
Au 29.9219 29.0062 16.9195
Au 30.807 26.7519 15.5018
Au 31.7031 24.4486 14.0928
Au 32.5563 22.1176 12.7161
Au 29.067 31.2402 21.1609
Pd 30.0014 29.0158 19.7428
Pd 30.9075 26.7591 18.3084
Au 31.8631 24.4844 16.9052
Au 32.7135 22.1333 15.5093
Au 29.9901 28.9726 22.5725
Au 30.9878 26.7531 21.1512
Au 31.8982 24.4675 19.7447
Au 32.7692 22.1229 18.3377
Pd 30.8632 26.6532 23.9636
Au 31.8968 24.4409 22.5681
Pd 32.7368 22.086 21.1541
Au 31.788 24.3578 25.3799
Au 32.774 22.0879 23.9756
Au 32.648 22.0115 26.7901
Au 12.7311 33.0645 22.5697
Au 11.9234 28.6586 12.4353
Au 8.94736 27.7568 15.7418
Au 9.66884 27.2237 13.0694
Au 8.05028 25.5119 14.399
Pd 10.9921 27.6493 19.9238
Au 13.8005 30.7567 17.8408
Au 15.2792 31.5245 20.1181
Au 10.4905 26.1686 17.3237
Pd 9.57497 21.0632 15.2437
Pd 12.4714 31.3524 20.2404
Au 10.5769 31.8484 18.4101
Pd 13.1216 28.9916 15.8225
Au 9.51136 23.794 15.9673
Au 10.2926 26.5207 27.8564
Au 8.26643 26.0141 23.7851
Pd 7.76214 25.5923 17.1072
Au 6.76305 23.7761 23.9015
Pd 8.82472 17.3831 18.2461
Au 7.41427 24.9321 21.5413
Au 29.2115 8.33646 18.3321
Au 30.095 10.5957 16.9514
Au 30.9692 12.904 15.542
Au 31.7936 15.2371 14.1343
Au 32.5768 17.5345 12.7572
Pd 29.1562 8.33027 21.1127
Pd 30.1134 10.5701 19.7404
Pd 31.0195 12.8418 18.3603
Au 31.9247 15.1539 16.9519
Pd 32.6478 17.5039 15.5388
Au 30.0967 10.5896 22.5309
Au 31.0467 12.8279 21.1592
Au 31.9272 15.1198 19.7886
Pd 32.6975 17.4598 18.3661
Au 30.9604 12.8773 23.9624
Pd 31.8418 15.1272 22.5821
Au 32.7538 17.4101 21.1778
Au 31.7825 15.1399 25.3696
Pd 32.6813 17.4104 23.9753
Au 32.6121 17.418 26.7704
Au 11.9035 7.31235 17.8116
Pd 9.82941 9.72126 15.6019
Au 8.82615 11.7844 13.9411
Pd 7.97576 14.0051 12.4153
Au 7.58296 20.1752 13.6813
Au 9.27188 11.3348 23.38
Au 10.8705 8.99902 19.8501
Pd 9.45322 11.0489 17.9833
Au 8.29654 13.0744 16.3077
Au 7.35769 15.2602 14.7494
Au 11.2722 13.2516 28.7207
Au 9.17157 11.1017 20.7487
Au 6.66969 17.3597 16.3906
Au 6.88515 22.8388 16.4507
Pd 9.27969 13.8347 24.2962
Au 8.75785 15.81 22.6461
Au 8.01569 13.0597 19.2184
Au 7.94327 13.3661 21.8554
Au 6.92733 15.5915 20.44
Au 7.21153 15.2 17.8296
Pd 19.0034 29.4438 31.5704
Au 17.4246 30.4561 29.3681
Au 15.8329 31.3824 27.1153
Au 10.4707 31.816 21.9863
Au 10.5864 27.3482 23.9772
Pd 21.7279 29.3242 31.4062
Au 20.2078 30.4402 29.2709
Pd 18.6307 31.3504 27.0019
Au 17.067 32.2887 24.7849
Au 15.5099 33.1312 22.5273
Pd 22.9758 30.1913 29.0734
Au 21.4707 31.3055 26.9163
Au 19.9019 32.2324 24.6698
Au 18.3713 33.1151 22.4088
Au 24.2621 31.0513 26.7311
Au 22.768 32.1043 24.5544
Au 21.2307 33.0283 22.2875
Pd 25.514 31.8016 24.3623
Au 24.0685 32.8661 22.182
Pd 26.8085 32.5923 22.0529
Pd 16.9311 11.5899 31.2617
Pd 17.7435 8.46946 28.7159
Pd 16.4883 7.37701 26.3052
Au 15.1711 6.56452 23.8282
Pd 11.5083 7.89725 22.5584
Au 18.7554 9.62393 31.1008
Au 20.3512 8.86529 29.0522
Au 19.1046 7.74598 26.5148
Au 17.8159 6.81221 24.0059
Au 15.3324 6.03017 21.1798
Au 22.9816 9.36704 29.1296
Pd 21.7619 8.16157 26.7423
Au 20.4771 7.07636 24.2049
Au 18.3443 6.0049 21.4457
Pd 24.4157 8.56476 26.7732
Au 23.1362 7.34358 24.4419
Pd 21.2427 6.26238 21.681
Pd 25.7749 7.71452 24.3967
Au 24.1354 6.49695 21.9488
Au 26.9367 6.82213 21.9933
Au 19.5868 28.1815 6.12942
Au 15.7547 31.5111 12.9767
Au 15.5423 30.0704 15.252
Pd 16.7415 30.8465 17.6468
Au 11.3261 33.6987 20.2671
Au 16.8472 30.1726 10.3479
Au 18.7456 29.7322 8.26049
Au 18.4836 31.403 12.7873
Au 17.0763 32.4216 15.3191
Au 12.8016 33.2623 17.9682
Au 22.6147 30.0525 10.4421
Au 21.2734 31.2483 12.8775
Au 19.8441 32.2822 15.1686
Au 18.3306 33.1844 17.6995
Au 22.5619 28.81 12.7902
Au 22.6008 32.1355 15.2271
Au 21.1545 33.0755 17.5758
Au 25.4035 31.8791 15.2237
Au 23.982 32.9248 17.5338
Au 26.7678 32.6871 17.5117
Au 18.9335 10.144 7.93444
Pd 17.4706 9.16876 10.1144
Au 15.9636 8.10424 12.2516
Au 14.4703 7.13544 14.4347
Pd 14.1131 5.78777 18.4649
Au 21.7059 10.2708 8.08061
Pd 20.2428 9.21591 10.2145
Au 18.7676 8.11874 12.3579
Au 17.2948 7.12017 14.5187
Pd 15.9015 6.22425 16.629
Pd 23.0162 9.44387 10.4041
Au 21.5866 8.26749 12.529
Au 20.0987 7.23614 14.7543
Au 18.6148 6.30667 16.9391
Au 24.3592 8.54318 12.6992
Au 22.9159 7.40395 14.9029
Pd 21.4091 6.49294 17.1296
Au 25.6844 7.6954 15.0626
Pd 24.2286 6.67354 17.2807
Au 26.9959 6.87332 17.3967
Pd 30.432 15.9546 27.7475
Au 30.5193 23.5523 27.7934
Au 29.6598 13.6331 26.372
Pd 29.623 25.854 26.3678
Au 28.8374 11.3402 24.9672
Au 28.7456 28.1968 24.9898
Au 27.9551 9.04628 23.5005
Au 27.8153 30.4865 23.5508
Au 28.2458 14.4844 28.7716
Au 28.3083 25.0269 28.7395
Au 27.449 12.2013 27.3609
Pd 27.4036 27.3123 27.3156
Au 26.6493 9.89133 25.9393
Pd 26.4805 29.6427 25.8769
Au 25.9877 13.0443 29.7223
Pd 26.1 26.4369 29.6376
Au 25.2247 10.7441 28.3123
Au 25.2438 28.8289 28.2499
Au 23.6843 11.5954 30.6336
Au 23.9656 27.9595 30.5842
Au 30.4686 16.033 11.7468
Au 30.3843 23.6283 11.7072
Au 29.6713 13.6962 13.1169
Au 29.4993 25.9796 13.116
Au 28.8372 11.372 14.5235
Pd 28.5623 28.219 14.5788
Au 27.9415 9.08121 15.9544
Au 27.7037 30.4944 15.9724
Au 28.2656 14.572 10.7979
Au 28.1131 25.0738 10.7627
Pd 27.417 12.2719 12.2037
Pd 27.1911 27.3624 12.2284
Au 26.5964 9.94002 13.5658
Au 26.3113 29.622 13.6648
Pd 26.0592 13.1586 9.903
Au 25.8496 26.4827 9.85342
Pd 25.2218 10.8461 11.2936
Au 24.9433 28.7434 11.3122
Au 23.9313 11.6764 8.96437
Au 23.5719 27.8498 8.95669
Au 12.3902 14.8636 30.6778
Au 9.25016 23.2362 23.2521
Au 10.2618 14.7963 26.5862
Au 12.2486 26.3792 26.0408
Au 12.4064 10.6157 26.6235
Au 12.5598 27.9987 28.379
Au 13.1923 8.11815 24.8184
Au 11.0813 28.8103 26.2154
Au 14.3866 10.6435 31.2173
Au 9.75826 24.1589 29.5262
Au 13.5843 11.7387 28.8436
Au 13.8273 25.5227 28.2271
Au 14.6251 9.13845 26.8855
Pd 11.8553 30.9524 24.3033
Au 13.0537 13.7385 33.0556
Au 14.1533 27.09 30.5871
Pd 15.8795 10.3012 29.0156
Au 14.9585 29.3088 28.8751
Au 15.1456 12.1075 33.2742
Au 16.5484 28.3428 31.1113
Au 9.40002 15.074 10.3843
Pd 14.4021 24.9265 11.109
Au 10.2529 12.7391 11.76
Au 12.937 25.8525 6.9723
Pd 11.1906 10.5492 13.3858
Au 12.969 27.281 10.34
Au 12.0878 8.34919 15.0812
Au 14.3251 32.4409 15.5882
Pd 11.7453 13.8482 9.72575
Pd 12.4063 24.635 9.25471
Au 12.6485 11.5021 11.1892
Au 15.0057 27.4264 6.46945
Au 13.5403 9.26312 12.8049
Au 14.4432 28.0969 13.5182
Au 14.1245 12.5515 9.0647
Au 17.5083 26.382 6.06257
Pd 15.0547 10.3082 10.6668
Pd 14.376 29.6821 11.4166
Pd 16.5457 11.3541 8.51965
Au 14.6329 28.854 8.89
