923
Atoms. Timestep: 20846
Au 15.1008 30.9331 26.4591
Au 25.3611 11.7599 10.3892
Au 13.1237 13.2615 19.0934
Au 8.76941 7.76023 17.1157
Au 23.1986 26.7442 23.0864
Au 25.7737 17.0019 29.7424
Au 21.0008 18.6264 12.6351
Au 10.0644 25.8635 21.3612
Au 30.6881 18.5058 19.6027
Au 32.9858 17.7565 25.7009
Au 23.152 20.9557 11.9733
Au 10.2121 17.0471 18.7833
Au 20.5198 14.8764 18.6287
Pd 32.0393 22.6459 21.2889
Au 17.0766 23.6807 26.9209
Au 26.241 28.8021 29.7366
Pd 12.5915 14.9646 15.5723
Au 10.8842 24.5724 15.9888
Au 24.6509 13.0581 27.0367
Pd 22.9717 17.0507 29.2381
Au 28.1303 13.2859 16.6452
Au 12.7084 14.5907 12.626
Pd 12.089 26.7834 16.9619
Au 25.2829 9.24979 11.2704
Au 12.1382 7.39017 21.6256
Au 14.1352 31.685 23.9568
Au 14.1158 18.1602 27.3658
Au 21.338 19.1091 24.0839
Au 31.0803 24.8327 14.4629
Au 10.4475 18.3974 12.6012
Au 18.1004 19.3982 6.09942
Au 11.759 19.4483 28.3925
Au 28.801 19.063 30.7534
Au 28.9829 24.6892 10.6176
Au 24.1606 13.7274 17.1461
Au 10.7122 16.9004 16.1196
Au 35.7609 17.6997 18.7944
Pd 13.7456 11.6307 8.12576
Au 26.9078 21.6616 14.4113
Pd 20.4549 19.3614 26.593
Au 13.5042 30.5756 28.6591
Au 17.2756 33.4276 17.4318
Au 5.99423 13.997 19.5513
Au 17.5237 25.15 21.2533
Au 12.3047 17.9768 23.0314
Au 19.9527 32.7297 22.8456
Au 20.8724 18.6031 15.7271
Au 13.2721 33.9058 24.8567
Au 28.6206 27.2709 11.5642
Au 22.9267 10.5455 10.314
Au 21.4068 32.4385 14.9682
Au 10.8972 17.0643 29.9667
Au 24.368 15.7671 12.4198
Au 14.3601 21.7339 12.346
Au 26.7074 17.9209 7.61558
Au 19.678 18.6308 31.7788
Au 30.4502 11.6908 23.5468
Au 11.4134 7.36837 16.6462
Au 29.3348 21.8613 10.5234
Au 12.4761 10.0583 21.9129
Au 17.5744 22.9381 19.6021
Au 11.1794 21.3013 12.7941
Pd 20.353 8.83635 22.2752
Au 7.96005 18.6238 22.5631
Au 27.2584 22.7841 25.2318
Pd 19.3964 18.2047 22.3225
Au 27.0514 15.3216 8.07374
Au 19.5201 6.70311 15.6737
Au 16.936 17.9013 17.8481
Au 18.1302 22.3051 7.20423
Au 26.3328 7.73168 16.2686
Pd 20.3925 18.4529 29.1459
Pd 26.332 27.0949 25.081
Pd 20.9069 26.7888 27.3988
Au 7.91704 28.4965 18.2796
Pd 26.4621 17.8134 22.8969
Pd 20.5052 32.0651 20.2191
Pd 19.2714 26.4094 10.7147
Au 9.64521 23.6763 28.258
Pd 19.7588 30.2893 11.8112
Au 26.0674 14.6484 15.2293
Pd 21.7704 8.53501 15.4253
Pd 8.40607 21.1048 21.3668
Au 18.6087 9.79662 17.3264
Au 27.3845 29.5866 24.606
Au 19.188 6.30474 22.7895
Au 13.2322 20.7845 23.826
Au 24.1631 28.2443 10.4327
Au 13.3844 28.9163 26.419
Au 16.3103 25.0442 24.666
Au 12.3864 29.3027 23.9251
Au 15.1059 24.1862 19.9778
Pd 26.1699 9.41566 18.4856
Au 13.8663 15.1747 30.4076
Au 12.5531 8.5337 24.295
Pd 9.04869 23.3801 22.6783
Au 12.3985 24.5273 20.7788
Au 14.6317 15.5929 9.47328
Au 12.4941 24.3509 9.32417
Au 30.3702 15.8274 19.9313
Au 24.6706 23.4408 10.9295
Pd 18.0059 17.3476 30.0436
Au 15.7427 17.9415 14.222
Pd 25.6839 27.0577 27.7683
Au 14.7299 11.1979 10.5229
Au 16.8856 10.7469 15.4097
Au 19.7224 28.9242 25.8939
Au 13.1396 24.3899 18.0409
Au 11.6464 19.8412 31.0765
Au 13.8684 9.19316 12.154
Pd 27.8144 12.6991 14.1089
Au 17.1814 20.5205 18.5761
Au 26.335 15.1075 18.5129
Au 15.0595 14.4315 17.0206
Au 18.2987 13.673 20.5606
Au 26.9133 17.383 25.7418
Pd 19.3416 23.7688 11.4338
Au 15.1751 23.1575 7.91315
Au 16.6442 9.07098 13.1519
Au 8.01552 26.0193 19.1765
Au 22.034 27.5311 8.96442
Au 13.9485 15.2397 21.0934
Au 15.6135 31.5674 18.2705
Au 31.6543 15.8604 27.0521
Au 20.6501 7.76284 17.8668
Au 12.996 11.8076 12.5607
Au 27.0662 15.5544 12.7272
Au 14.3437 12.1034 26.7584
Au 15.192 31.3346 21.1774
Pd 30.2249 22.9512 28.1415
Au 15.1169 28.0863 10.2631
Au 14.8293 26.8384 17.6623
Au 22.4095 23.638 23.3809
Pd 19.4553 19.0044 10.3996
Au 24.6298 7.20802 22.7383
Au 6.43198 19.1514 17.9859
Au 13.3268 21.9896 19.3867
Au 31.0058 10.4927 18.9814
Au 6.48668 23.0089 21.8336
Au 28.3084 8.79178 14.5633
Au 15.8028 33.7407 23.1084
Au 8.20312 16.473 12.1287
Pd 31.4583 27.0193 16.3136
Pd 31.1229 13.1685 20.1907
Au 14.8159 7.147 25.0161
Pd 9.2185 19.293 16.9253
Au 14.8013 24.6545 13.1955
Au 24.8111 19.4552 30.3391
Pd 24.5915 30.6652 21.0808
Au 27.8607 15.4263 21.1841
Au 8.79439 28.0722 26.1449
Au 22.5126 29.3255 22.229
Pd 22.1736 23.4654 12.2897
Au 12.2465 31.4291 26.0311
Au 16.9366 17.5854 10.2028
Au 17.1505 13.5519 26.9587
Au 19.7704 32.82 12.8055
Au 10.4207 21.1221 23.6437
Au 7.06026 12.7719 14.9567
Au 18.8652 27.3549 20.6771
Au 15.7516 15.3154 6.86701
Au 21.7906 27.5613 14.9749
Au 25.2908 13.502 20.6062
Au 19.2655 23.2551 14.1567
Au 10.7734 8.29494 19.3308
Au 14.909 7.18283 13.7115
Au 32.0469 19.7109 27.2491
Au 25.3854 11.1756 22.612
Pd 21.69 27.3671 30.1275
Au 19.4843 31.8654 25.5624
Au 16.6903 26.9371 15.5954
Au 9.81834 30.4903 22.2217
Au 10.0175 16.9718 24.215
Pd 23.2663 8.32335 12.8239
Au 10.8929 25.6033 11.4167
Au 12.9018 29.3242 16.9136
Pd 13.0247 28.305 12.6546
Au 26.2103 15.3048 31.814
Au 12.2322 16.8489 11.1336
Pd 15.5846 21.2132 20.6091
Au 19.0303 9.00113 19.9022
Au 15.8435 19.0108 29.3932
Au 34.0444 23.0884 23.1454
Pd 26.4424 14.6818 25.6117
Au 22.8505 20.7136 25.9269
Pd 22.9776 20.76 7.3755
Au 27.2998 16.7136 16.5697
Pd 28.3922 20.2144 12.4581
Au 5.45449 16.5528 18.5561
Au 29.9884 18.2217 26.327
Au 12.0724 13.7754 26.253
Pd 19.1231 17.5336 8.17298
Pd 17.8504 25.7159 13.1668
Pd 28.5181 13.5504 19.4174
Pd 12.7807 19.4731 11.57
Au 17.2275 25.3967 18.1459
Au 33.1904 24.1092 16.0051
Pd 30.2649 24.223 22.8809
Pd 15.6617 17.0059 31.3653
Au 22.7667 19.7936 28.512
Au 32.1448 10.8905 21.3384
Au 12.4507 22.888 14.6426
Au 22.0479 20.1657 18.0656
Au 19.9218 25.1457 33.6312
Au 29.694 20.2277 28.4686
Pd 21.666 17.319 18.0521
Au 9.95314 16.7262 21.5498
Au 12.2241 25.7888 13.8203
Au 21.8663 33.1928 24.7893
Au 6.16722 14.684 16.7027
Au 19.0683 28.4214 16.1129
Au 29.2248 28.5727 20.3714
Au 33.1238 25.6162 18.1615
Pd 12.5008 23.6192 12.0225
Pd 26.2669 26.5902 22.2169
Au 19.4181 23.1187 22.0045
Au 31.02 22.3412 16.0725
Au 26.6179 18.0936 32.0897
Au 14.8107 25.7802 8.73435
Au 28.0154 17.8593 28.229
Au 10.2658 26.7003 28.0351
Au 17.4404 31.5721 12.742
Au 14.1111 12.6704 14.8702
Au 11.2784 19.4616 15.0963
Au 23.1044 12.3274 21.99
Pd 23.6606 25.8976 11.6808
Au 12.8732 17.3164 13.9793
Au 16.295 19.9745 25.8757
Au 18.8567 34.0266 19.4211
Au 16.8342 28.8367 32.2136
Au 15.5399 24.19 32.306
Au 17.3417 12.6685 17.2608
Au 16.9734 29.3403 14.2103
Au 24.6123 22.6059 21.8842
Au 27.581 13.5889 30.1542
Au 18.6759 30.7197 31.7367
Au 29.2566 22.7155 20.9138
Pd 26.5606 24.7306 19.891
Au 23.1849 21.5208 31.185
Au 19.465 16.723 14.2442
Au 7.07959 24.1964 24.3203
Au 9.67275 25.494 24.1819
Au 11.4078 32.2828 23.5333
Au 18.8493 9.99065 24.335
Au 6.15357 21.1294 19.8132
Au 10.8428 12.3761 21.455
Au 15.7408 13.5 19.6528
Au 19.3239 31.652 29.2663
Pd 24.1419 13.4753 24.3388
Au 12.5891 16.5076 25.4625
Au 17.9674 16.6297 5.96193
Pd 22.5123 32.1122 22.1261
Au 28.7125 22.0091 30.3396
Pd 21.9031 19.8805 9.76954
Au 21.2148 25.8645 24.8479
Au 24.8143 30.6899 28.2065
Pd 11.9944 24.9372 29.1422
Au 14.2781 23.6842 27.2897
Au 17.1216 14.9632 24.5346
Au 20.9011 13.7411 21.0757
Au 12.6533 21.6388 9.86175
Au 23.5372 8.25876 17.5556
Au 18.2277 11.9982 29.0367
Au 6.24626 18.12 13.2973
Pd 28.2951 16.0242 23.8343
Au 24.0904 18.3967 8.81758
Au 33.3646 20.5178 22.4613
Au 19.0746 9.09012 14.6305
Au 19.6293 25.7737 30.9058
Au 22.7262 12.664 19.2104
Au 13.6051 24.5674 24.763
Au 21.9794 29.8633 13.5666
Au 14.0217 30.2183 14.3727
Au 18.1337 13.922 6.58381
Pd 8.04772 19.1908 11.5769
Au 23.1881 8.15964 24.8337
Pd 7.60038 15.9226 22.8172
Au 26.4178 28.7308 11.8199
Au 10.3826 23.0773 10.5144
Au 21.6087 15.6281 12.6929
Au 21.9743 30.655 26.546
Au 30.4711 13.0596 14.5397
Pd 22.1895 25.4501 19.2325
Pd 17.0303 18.6073 20.5557
Au 35.0004 14.1459 22.0352
Pd 27.6956 25.228 26.8716
Au 11.7537 15.7369 8.80034
Pd 22.5697 15.106 25.829
Au 30.3358 20.0077 14.424
Au 29.6057 15.4397 17.4141
Au 23.1466 9.45304 22.5025
Au 24.5722 26.2374 18.5136
Au 23.6686 30.9834 24.358
Pd 28.7996 13.4773 24.7556
Au 21.8037 25.415 16.6004
Pd 14.344 18.2901 9.6459
Au 20.388 19.8533 7.47153
Pd 19.7111 24.5717 19.6733
Pd 7.64057 16.4127 20.1014
Au 24.757 19.7617 14.0126
Au 27.4543 30.1521 18.76
Au 28.622 18.9894 24.0597
Pd 16.5989 12.0362 24.7556
Au 11.0672 22.0742 21.0655
Pd 14.7465 18.0659 21.7309
Pd 32.9609 19.755 14.5576
Au 16.9289 13.435 14.5866
Au 18.6947 11.0953 21.7026
Au 5.86989 18.4413 20.5677
Au 29.0438 21.6745 23.4415
Pd 30.4873 17.3728 15.0735
Au 17.9004 7.24252 25.0225
Au 12.8378 15.8827 18.1884
Au 13.6804 33.0874 27.4727
Au 23.4676 10.6577 27.7638
Au 9.1139 11.1781 13.7487
Au 17.425 30.3593 10.1918
Pd 13.8534 20.7671 26.8284
Pd 7.93406 16.9403 17.3448
Pd 16.2654 13.5169 22.3945
Pd 8.30225 14.485 18.3037
Au 14.5385 19.2772 19.0154
Au 9.34389 12.37 16.2782
Au 10.3194 14.702 28.7826
Au 13.0024 24.9847 31.7103
Pd 24.9789 28.7999 23.3708
Pd 31.3869 19.3845 24.2133
Pd 17.6315 8.50004 22.4218
Au 25.2341 24.1729 26.7388
Pd 17.5282 15.1449 18.3652
Au 23.7854 11.0759 12.8219
Au 13.6942 12.5908 21.8108
Au 21.8828 17.3586 7.6208
Au 21.14 10.9481 20.6196
Au 6.33591 19.3564 24.9955
Au 11.3119 27.3427 25.5464
Au 12.8465 13.2885 28.797
Au 24.6143 22.3388 24.7131
Pd 28.6851 25.1706 13.312
Pd 11.884 10.81 19.363
Au 10.091 29.3773 16.9367
Pd 28.0946 25.356 24.17
Au 10.5304 12.1994 27.9174
Au 9.84293 21.3812 29.7007
Au 30.9613 26.0146 11.962
Au 20.5404 7.70631 24.7019
Au 24.0177 6.77782 15.0181
Au 30.949 16.6343 24.2058
Au 25.2735 32.14 18.9431
Au 24.2052 10.3853 20.1124
Au 23.7276 29.6149 30.4128
Au 28.7067 8.62755 17.3036
Au 11.5209 30.8283 15.1689
Au 26.0428 29.9076 14.1984
Pd 16.1152 26.1286 27.2979
Au 25.0379 22.6044 32.8208
Pd 18.8317 21.2093 31.9686
Pd 16.0307 21.6048 28.2291
Au 16.6488 21.8226 33.4627
Au 14.1469 9.356 26.5063
Pd 26.5299 18.1342 12.2892
Pd 15.7711 11.5658 12.9779
Pd 28.5591 11.1005 18.3245
Au 23.0358 15.4046 9.50404
Au 18.0046 7.16794 18.0589
Au 15.591 29.425 16.5619
Au 33.1291 17.1111 14.872
Au 16.1933 10.4325 8.30922
Au 17.3732 27.6042 8.92355
Au 20.531 21.3579 11.8752
Au 31.3116 15.483 13.2867
Pd 19.7794 29.9 21.4556
Au 24.2353 24.1723 16.5615
Au 20.6548 21.9102 24.7542
Au 26.7875 27.4691 19.4557
Pd 23.379 15.1015 22.1345
Au 20.7511 7.28277 13.2476
Au 18.2874 29.6635 23.7059
Pd 22.104 12.7769 8.94012
Au 9.57892 10.0283 21.0715
Pd 18.6245 25.5176 28.4152
Au 12.3928 7.94316 14.1554
Pd 19.4126 19.2262 18.0462
Au 14.0552 28.1771 21.83
Au 28.6517 25.7155 21.3115
Au 25.6793 11.7505 29.1799
Au 28.859 26.4672 15.9149
Pd 14.768 25.4505 22.3594
Au 10.3089 14.885 10.9692
Au 7.42233 16.799 25.4133
Pd 8.79048 14.922 15.5779
Pd 24.1354 27.9828 13.3289
Au 22.1019 30.0622 10.4847
Pd 29.6153 17.5212 21.9646
Au 24.7958 20.535 18.5299
Au 28.4729 20.066 8.35472
Pd 14.7931 23.636 10.53
Au 21.1527 9.95976 13.0887
Au 20.807 19.1013 20.2936
Au 8.3957 11.8401 22.9341
Au 8.56305 13.9994 20.9587
Au 18.9416 12.6882 8.9409
Au 12.2229 26.3738 23.0779
Au 27.5531 12.7015 27.3936
Au 31.3767 27.3742 19.0816
Au 17.6657 21.6808 16.1868
Au 19.0392 28.4051 30.5231
Au 6.44626 21.9682 17.1096
Au 34.9893 15.1244 19.4734
Au 25.7981 9.10867 24.3428
Pd 25.8749 20.9167 11.8906
Au 13.6018 31.9313 16.5405
Au 24.4306 23.1726 8.06157
Au 26.0183 7.79774 13.4376
Au 23.3266 25.258 14.1632
Au 16.9035 23.1546 12.6151
Au 18.8722 8.79159 11.7708
Pd 23.0002 20.8279 20.4765
Au 7.24051 11.668 20.4511
Au 11.895 10.7617 26.052
Au 20.2649 32.4105 17.5386
Au 30.1372 27.562 13.8886
Au 27.9245 9.04191 11.8723
Au 25.9566 14.8615 22.9615
Au 22.491 23.2139 33.4987
Au 8.18011 13.5321 27.5516
Pd 9.02644 19.2766 24.9873
Au 17.9782 18.5876 27.4769
Pd 15.2194 22.3839 24.9639
Pd 28.6489 27.7832 23.098
Au 13.6068 8.49467 19.6679
Au 11.9829 22.2468 25.6521
Pd 20.9494 30.5113 23.9039
Au 27.5895 22.6659 27.9337
Pd 25.6297 22.2454 30.006
Au 19.1912 11.8414 26.2431
Au 24.1916 25.7489 9.07428
Au 29.4869 28.6404 17.5522
Pd 26.7402 25.3185 17.169
Pd 21.9375 22.958 17.9232
Pd 21.3924 12.6136 13.1768
Pd 10.4651 19.3565 21.6363
Au 16.3907 8.02219 27.0776
Au 28.7439 10.9315 25.7016
Au 23.3606 22.6707 28.5514
Au 15.5621 13.4083 29.0813
Au 19.3452 25.809 15.4541
Au 16.1579 8.75771 10.5219
Au 18.0606 18.4227 12.6856
Au 16.9613 17.8064 23.4178
Au 8.14688 9.78462 18.7335
Au 7.39211 13.9049 24.9297
Pd 5.87493 20.3852 22.4232
Pd 22.4243 11.193 15.2211
Au 20.2745 11.1867 10.8436
Au 32.6939 15.3056 21.1935
Pd 18.1751 34.0679 24.6055
Au 21.9061 12.536 26.2635
Au 26.6216 24.5803 9.30491
Au 25.9739 31.5843 25.9051
Au 10.2633 17.5664 27.0959
Au 23.6299 24.17 30.7901
Au 7.6297 21.4889 24.0631
Pd 10.9584 22.6345 18.2494
Au 23.183 31.8485 17.1694
Au 22.8946 34.6971 22.6949
Au 11.2581 28.1594 14.7914
Au 12.5383 27.9445 29.0731
Pd 15.4306 19.8848 16.4623
Au 10.0421 30.2374 24.9827
Pd 21.2703 30.0708 16.3909
Au 26.4581 8.71313 21.4877
Pd 13.8446 22.7443 22.1817
Au 16.2319 21.6657 30.8785
Au 7.68129 18.8507 27.2443
Au 27.2325 31.8732 20.7843
Au 15.4974 27.2515 12.9288
Pd 16.2506 8.6559 20.1818
Au 22.9357 17.5124 14.163
Au 30.2872 9.23256 22.1872
Au 23.7773 26.4084 25.8333
Au 28.7398 8.94741 20
Au 8.3644 25.4108 26.5161
Au 29.686 19.0166 10.5091
Au 22.8738 28.2668 32.4947
Au 11.1335 31.751 17.7579
Pd 14.4756 9.72159 14.8576
Au 17.7598 30.6242 27.2284
Au 9.49924 12.1887 25.4693
Pd 27.2864 23.1522 12.0515
Au 11.0558 9.66097 12.373
Au 28.5914 23.3959 18.4222
Au 11.6802 22.7127 30.9816
Pd 23.6414 32.6743 26.773
Pd 25.0541 19.226 24.909
Au 33.8459 24.5303 20.4456
Au 20.7463 25.5443 13.096
Au 24.2864 30.4412 12.0854
Au 30.3195 25.671 27.2768
Au 5.43762 17.7549 23.1754
Au 20.353 15.368 5.75999
Au 21.168 30.0062 31.1804
Au 6.95556 12.1428 17.7024
Au 10.2563 20.2773 10.4315
Au 29.2382 17.1973 12.5516
Au 33.5011 15.775 23.7497
Pd 21.6003 13.1679 16.7448
Au 20.9194 22.4994 7.07417
Au 20.944 21.8977 27.62
Pd 24.0332 10.9098 17.4077
Au 17.7799 20.9241 11.384
Au 20.3947 15.908 30.0406
Pd 13.0658 20.1304 21.2691
Au 21.9365 23.1969 20.7161
Au 34.873 23.3222 18.1663
Pd 9.32611 23.0238 25.4921
Au 17.4341 11.0881 10.7261
Au 13.5557 17.0767 7.36063
Au 14.5606 28.8594 30.6639
Pd 14.4033 18.5439 24.6337
Pd 26.4635 12.1053 24.8135
Au 31.5195 14.0855 24.9475
Au 27.1305 23.8213 31.6125
Au 21.3673 9.82842 26.137
Au 10.9398 32.3349 20.5595
Pd 22.4514 27.9435 17.7539
Au 24.0985 16.2808 16.6921
Au 17.1305 15.7833 12.8875
Au 35.35 20.5263 18.4486
Au 21.5342 15.6883 15.7593
Pd 19.3359 14.1524 13.506
Au 11.2912 28.3638 21.4249
Au 19.6983 11.65 15.5726
Pd 26.453 20.8251 23.2668
Pd 14.7518 16.6768 11.9422
Pd 16.254 17.0884 25.9983
Au 22.1719 22.7032 9.55404
Au 22.8728 33.1886 19.6357
Au 19.9104 29.5443 18.6917
Au 12.4374 17.655 20.2525
Pd 27.0383 20.1954 29.0768
Pd 13.7703 20.732 29.6961
Au 20.3245 21.3052 16.4232
Au 16.2515 9.37348 24.7111
Au 22.4373 30.3792 19.4115
Au 11.1836 14.7831 20.2296
Au 17.4114 6.28977 20.5991
Pd 18.2444 20.1578 29.5938
Au 14.1132 23.3405 29.9365
Pd 21.6172 27.7625 11.7121
Au 12.4375 18.567 17.4169
Au 10.3508 9.98315 17.1351
Au 16.1176 31.8965 15.2341
Au 13.4924 14.1426 7.48555
Au 16.9416 24.261 15.4811
Au 15.9462 20.3441 23.1215
Au 8.47309 23.9171 17.2191
Pd 14.6901 29.2414 19.2798
Au 5.22997 15.8406 21.3301
Au 13.7551 19.941 14.2589
Pd 24.7788 29.1224 26.0213
Pd 26.9565 10.5455 16.137
Au 25.37 16.5638 20.7554
Pd 15.001 26.7643 32.1863
Au 29.7932 14.8454 28.9066
Au 11.2885 24.7139 26.4107
Au 22.1043 8.49294 20.0778
Au 27.1511 15.2576 28.1824
Au 19.7281 28.8468 9.5963
Au 14.4529 19.4953 32.0059
Pd 16.5195 24.3181 29.6079
Au 8.17831 16.2793 28.1098
Au 12.9325 21.2244 16.801
Au 24.7822 5.94103 17.604
Au 16.621 20.6099 13.9099
Au 20.5765 13.9288 10.8737
Au 18.2121 34.6221 21.9506
Au 31.6872 22.1404 24.0141
Au 17.7982 13.6804 11.3136
Pd 15.55 29.5808 23.4829
Au 10.6144 25.2012 18.701
Au 7.34453 26.8265 24.2536
Au 14.6782 8.43195 22.521
Au 15.7367 16.2477 28.7835
Au 20.8373 10.5073 8.27388
Au 9.78181 8.67262 14.7196
Pd 25.6168 13.2324 12.6863
Au 25.81 20.465 7.39117
Au 19.8451 26.7511 18.1109
Au 15.5037 19.3006 11.833
Au 24.9211 33.33 21.4897
Au 21.4829 13.7534 23.7015
Au 35.0549 19.2705 20.8311
Au 26.912 21.9864 9.44897
Au 26.1661 24.598 14.4645
Au 24.1284 18.6443 6.17079
Au 34.5166 18.3991 23.6223
Au 14.3104 13.5579 24.3662
Pd 14.5814 10.9258 19.8606
Pd 12.0767 29.835 19.3116
Au 17.6248 15.3394 8.896
Au 18.3334 11.1363 6.91291
Au 7.78821 10.1438 15.9709
Pd 23.9379 31.7053 14.4745
Au 22.0607 5.94884 16.5042
Au 24.3711 19.7985 32.9348
Au 30.1967 13.0231 26.994
Pd 25.5563 17.2409 14.5966
Pd 30.6396 26.3393 24.4654
Au 30.151 21.1238 18.9232
Au 34.6903 22.0252 20.5783
Au 27.7362 12.9395 22.3584
Pd 33.2723 17.4207 19.5153
Pd 21.8185 23.1751 15.0514
Au 11.7638 19.286 25.5606
Au 25.1967 18.639 27.596
Au 16.0297 10.8276 22.1693
Au 22.2114 25.7408 32.3888
Au 33.6704 20.5314 25.1707
Pd 16.9052 31.7044 24.6888
Au 24.4123 22.6694 13.7344
Pd 11.5666 23.6607 23.3352
Au 16.9827 29.2854 21.0941
Au 35.0807 16.7521 21.5746
Pd 32.8356 20.2311 19.5159
Au 28.8503 30.4446 22.4571
Au 31.5735 19.8245 16.9659
Au 23.1542 28.412 28.0144
Au 29.4881 10.8161 13.2082
Pd 20.1615 27.7716 23.2185
Au 26.7996 29.2118 21.4731
Pd 34.2513 16.1188 17.1007
Au 27.5301 20.0101 18.6948
Pd 13.3904 33.3585 21.9166
Pd 32.3732 17.9172 22.0205
Pd 32.4754 14.7218 18.4945
Au 8.57768 21.369 18.5219
Au 26.3422 22.4601 17.1753
Au 8.43696 17.5712 14.6979
Pd 23.6242 18.8386 16.4407
Au 10.399 10.1057 23.715
Au 32.3116 22.3273 26.6575
Pd 22.1317 20.5384 14.3821
Pd 17.2309 11.1174 19.4313
Au 24.9286 14.3177 29.6675
Au 32.3289 22.8302 18.5714
Pd 24.3264 23.2467 19.1328
Au 12.1364 15.1338 23.053
Au 6.38276 20.8092 13.034
Au 28.7093 24.7197 29.5042
Au 18.8974 25.1399 23.6283
Pd 8.95199 23.5642 20.077
Au 18.4583 21.267 26.896
Pd 20.8866 20.9541 22.2067
Au 14.785 16.0664 23.6121
Au 26.0284 10.4305 26.7993
Au 13.4235 17.8741 30.1098
Pd 16.8295 26.9765 30.1321
Au 28.1454 19.7581 21.3474
Au 17.6342 26.348 32.7119
Au 12.5991 16.0029 28.1437
Au 17.4384 24.2036 34.3283
Au 24.6372 16.186 7.22461
Au 8.88629 20.1921 13.9877
Au 20.3591 18.0193 5.5063
Pd 10.7519 14.4198 17.5025
Au 23.2947 13.3936 11.3226
Au 19.7227 24.0763 26.3455
Au 15.2977 20.9998 9.65569
Au 27.9878 18.569 14.6009
Au 26.6432 22.0041 20.1946
Pd 27.4822 20.0685 26.3073
Au 31.3002 20.7294 12.0195
Pd 21.523 17.2785 10.3253
Pd 29.613 10.8808 15.8785
Pd 28.8772 15.2649 14.7228
Pd 19.6767 21.601 9.38868
Au 30.2107 14.4331 22.4729
Pd 14.1786 24.9644 15.7403
Au 19.3544 20.4948 14.0369
Au 18.7582 22.8127 29.2709
Pd 29.5658 22.4779 13.5239
Au 17.2717 25.0457 7.94634
Au 19.319 23.7121 17.1761
Au 30.7574 20.2716 21.6836
Au 26.6447 19.1893 9.94164
Au 26.1343 12.3221 18.2109
Au 33.7196 12.805 20.1275
Au 24.8735 13.746 8.63966
Pd 19.9749 21.6404 19.4051
Pd 10.3554 27.7528 19.0338
Au 14.6989 14.8994 26.683
Au 26.9862 14.122 10.4308
Au 26.9423 27.2736 14.0797
Au 29.131 15.604 26.366
Au 10.0536 21.8558 15.8614
Au 24.6408 26.8418 15.8541
Pd 12.8567 13.4305 10.1141
Au 26.8488 20.776 31.9154
Pd 14.418 26.091 29.6153
Au 22.7013 16.6053 5.21843
Au 5.73924 17.3027 15.8755
Au 20.8994 33.0989 27.4389
Au 23.8475 29.4176 15.8098
Au 18.8567 9.14074 26.9163
Au 25.2671 21.3385 27.2069
Au 8.5216 21.9584 11.9919
Au 9.76429 20.8457 27.0762
Pd 25.9734 24.7952 29.2657
Au 15.4468 6.58062 18.4989
Au 28.6844 21.0278 16.4005
Au 21.2638 8.55232 10.6949
Pd 18.6273 19.9725 24.2901
Pd 26.4285 10.5275 13.4044
Au 21.0814 24.387 28.965
Pd 14.0343 10.8225 24.1407
Au 13.0718 9.54052 17.2113
Au 18.1204 33.3653 27.3108
Au 16.889 30.0683 29.799
Pd 14.8338 11.6991 17.2939
Au 15.0177 22.3941 15.0476
Pd 7.50124 25.5269 21.8666
Au 16.2503 33.5949 20.2283
Au 24.4092 26.9403 30.5303
Au 28.1546 16.7853 10.0959
Au 23.0408 12.2792 29.8955
Au 31.8852 14.9027 15.8587
Au 22.877 17.9304 26.1818
Pd 11.7983 18.5879 9.00045
Pd 18.0087 18.8075 15.6062
Pd 12.9388 26.9351 19.6166
Au 23.3604 25.6137 28.3828
Pd 22.2977 28.4535 25.0203
Au 22.0273 6.78293 22.3638
Au 21.0282 25.5648 21.8599
Au 22.432 14.4155 28.4408
Pd 24.2687 27.8888 20.7025
Au 29.834 23.7422 25.559
Pd 12.0066 22.3067 28.2999
Au 13.6273 20.0159 7.74119
Au 19.1532 15.4855 22.6194
Pd 19.8759 13.8713 28.0023
Au 26.1856 31.5029 23.1834
Au 27.1219 23.5805 22.4521
Pd 23.3784 18.2289 19.7564
Au 30.5651 17.5554 28.9483
Pd 33.9805 18.7513 17.0312
Au 15.7432 33.7234 25.956
Au 21.3987 16.5299 20.9704
Au 17.6187 19.974 8.70402
Pd 16.7594 15.9521 21.3695
Au 21.4929 27.8295 20.3226
Au 15.2259 16.5445 19.2218
Au 17.0351 27.2385 23.0885
Au 6.49493 23.7361 19.1934
Au 19.5256 28.0058 13.4408
Au 24.4138 20.9608 9.62357
Pd 15.1376 13.8814 11.7341
Au 18.2076 15.9539 27.5979
Au 5.33197 15.3288 24.1188
Au 10.0254 23.801 13.4183
Au 20.5106 13.2169 30.4658
Au 10.9104 29.3914 27.4519
Pd 19.63 24.1612 8.78422
Au 9.18817 18.8784 29.3539
Au 19.1978 16.2541 11.1481
Au 6.26552 13.5106 22.3426
Au 13.4268 26.2885 27.0702
Pd 30.7216 24.7005 17.2904
Au 20.7886 20.9219 30.1505
Pd 8.49312 18.9265 19.7381
Au 19.0816 17.3479 25.1092
Au 18.9791 16.9092 19.821
Pd 19.4354 30.6113 14.4372
Au 27.0799 26.4962 30.977
Au 24.6085 33.4604 24.2765
Au 25.0994 25.3648 32.6169
Au 20.5655 29.388 28.4936
Au 33.7325 21.4914 16.5005
Au 28.9845 26.1807 18.675
Pd 18.1021 23.7444 31.7947
Au 24.6492 15.9546 27.2946
Pd 18.1323 28.092 28.0221
Pd 15.8155 9.22398 17.6155
Pd 9.32331 26.6935 16.7267
Pd 18.8764 12.8917 23.5707
Au 9.58136 12.172 19.0025
Pd 9.59304 28.0503 23.4565
Au 14.5714 6.22854 20.9844
Au 15.4843 22.7074 17.6937
Au 27.8312 11.7536 11.4109
Au 15.8051 12.5212 6.55678
Au 20.5662 12.7312 6.68034
Au 10.1138 5.95296 18.4731
Pd 19.2814 16.759 17.0209
Au 13.8802 22.0616 32.3594
Au 29.2515 14.0411 12.1778
Pd 18.4719 26.5193 25.8067
Au 19.6992 14.6861 25.472
Pd 14.8685 15.2296 14.2647
Pd 18.601 11.4568 13.1283
Au 18.6459 9.35119 9.09967
Au 16.8313 7.75639 15.6105
Au 16.649 25.5919 10.7383
Au 15.81 26.8995 20.2118
Au 15.3488 30.0031 12.0542
Pd 19.6021 22.5972 34.0039
Au 17.608 28.2896 11.6387
Au 12.1547 10.7098 10.1576
Au 24.7911 29.3746 18.468
Au 25.0801 12.131 15.1551
Au 22.0488 24.8782 7.69477
Au 28.2942 27.2343 28.6221
Au 22.2037 32.1305 12.2864
Au 30.7253 12.8182 17.474
Au 28.5301 23.7357 15.6806
Au 20.7985 23.2938 31.5167
Au 16.6415 10.7311 27.2258
Au 14.5264 17.1424 16.444
Au 13.5317 26.0978 11.1782
Au 9.70778 15.0618 26.092
Au 18.6809 33.0532 15.2128
Au 19.7341 26.6209 7.98019
Au 12.1573 12.2507 16.8257
Pd 25.5866 17.9019 18.3266
Au 10.5218 12.3098 11.6129
Au 27.0708 7.00433 18.8634
Pd 20.3826 15.0928 8.43431
Au 16.1099 18.0093 7.51565
Pd 9.4591 30.2904 19.5393
Au 11.0108 13.166 14.2665
Au 21.4022 10.3731 17.7496
Pd 29.9442 21.0635 25.95
Pd 21.2191 11.0866 23.6773
Au 32.4816 22.3686 13.8788
Au 22.6626 14.4493 6.87639
Au 22.524 5.97555 19.1565
Au 9.66745 14.2097 23.4485
Au 21.4911 16.4953 23.8036
Pd 26.9125 11.1546 20.4579
Au 28.0055 17.4302 19.4959
Pd 31.7438 17.1482 17.4072
Au 15.9125 20.8159 6.80224
Pd 32.6398 13.099 22.7067
Au 20.4081 35.1999 23.6159
Au 25.1306 24.8511 23.9405
Pd 15.3489 28.5156 28.1799
Au 17.9085 14.5662 29.9424
Au 20.2174 27.7853 32.7975
Au 22.6849 14.8839 31.104
Au 26.3067 25.7256 11.8544
Au 28.5381 29.2976 15.0997
Au 28.0254 10.2742 23.1654
Au 14.1361 7.22703 16.2875
Pd 25.515 16.4512 10.0567
Au 22.2757 31.5093 29.104
Pd 19.1773 14.251 16.1767
Au 24.6455 7.43233 19.9982
Pd 17.6212 31.8953 22.106
Au 20.8284 11.2729 28.508
Au 29.2347 18.4425 17.2164
Au 24.1253 17.0312 31.942
Au 17.9929 22.5984 24.5264
Au 25.43 19.515 21.0302
Au 22.261 18.7834 31.2726
Au 23.8447 18.362 11.5695
Au 23.3251 14.0969 14.4106
Au 24.5001 9.41056 15.0909
Pd 30.9155 27.0357 21.79
Au 13.314 32.3576 19.3424
Au 9.70361 17.4533 10.1198
Au 12.7047 6.20122 18.8157
Au 32.6611 25.2971 22.6519
Pd 26.23 19.6481 16.2966
Pd 17.0521 16.0067 15.7181
Au 11.8228 10.544 14.778
Au 15.9349 13.1848 9.08833
Pd 11.033 20.035 19.0924
Au 31.7121 18.1739 12.7108
Pd 24.5102 16.4796 24.503
Au 28.8316 27.5965 25.9478
Au 32.4305 24.5063 25.176
Au 31.2081 23.4612 11.7295
Au 12.693 30.7216 21.7064
Au 11.8121 12.4152 23.9186
Au 16.348 6.20285 23.0546
Au 16.6141 28.517 25.7248
Au 20.1075 6.5078 20.2938
Au 18.2458 20.7345 21.5132
Au 7.72482 22.562 14.7263
Au 25.9243 31.08 16.5669
Au 26.735 28.2866 16.7748
Au 22.5153 23.8039 26.1721
Au 27.1691 29.3759 27.2828
Au 6.61247 15.4397 14.0853
Au 16.4721 23.0405 22.427
Pd 20.8941 34.5602 21.0436
Au 23.3457 15.377 19.2734
Au 21.3417 20.7316 33.0043
Pd 17.2877 23.0047 9.71999
Au 15.989 32.3089 28.5774
Au 28.3794 16.3718 30.5955
Au 23.4922 17.9315 22.4598
Au 23.7968 10.8593 24.9984
Pd 19.6865 12.267 18.6106
Au 10.4834 15.8387 13.5771
Au 17.3599 28.3443 18.3846
Pd 8.64642 13.8512 13.0054
Au 18.0801 30.8389 16.8275
Au 8.42814 28.1309 20.9855
Au 17.0632 19.2142 32.0242
Pd 13.9847 27.5847 15.0957
Pd 29.462 11.412 21.016
Au 17.9846 31.3876 19.5047
Au 6.72258 19.8368 15.4724
Au 20.8285 16.5678 27.3094
Au 23.4523 20.521 23.121
Au 26.5715 27.1885 9.64043
Au 23.8463 21.5431 16.2099
Pd 31.043 24.8525 20.0998
Pd 14.4839 27.2066 24.5583
Pd 21.5653 25.2403 10.3031
Au 24.1045 25.1447 21.159
