923
Atoms. Timestep: 21118
Au 8.33753 25.6143 28.5598
Au 21.1062 14.7942 8.82067
Au 12.1219 9.06413 16.5021
Au 7.58346 12.0656 21.9393
Au 27.5986 22.9572 28.8422
Au 24.2324 20.4366 32.5241
Au 28.6402 23.8379 15.0049
Au 9.91419 25.8478 18.4225
Au 30.1816 21.4511 8.27646
Au 31.2128 13.18 16.1513
Au 11.9199 17.3528 9.70301
Au 12.0309 16.46 12.3926
Au 19.563 21.2574 11.6707
Pd 27.6605 20.8673 22.5743
Au 17.4693 14.7628 22.787
Au 25.4631 27.3752 28.7815
Pd 9.58532 15.7044 24.4649
Au 17.576 27.5118 15.0016
Au 22.3018 8.8149 30.0707
Pd 16.4539 9.14006 21.3123
Au 29.6999 12.7556 14.0378
Au 15.0486 13.5844 22.0768
Pd 24.4841 24.5319 7.14842
Au 21.3892 8.41409 24.4996
Au 19.1725 5.41348 16.8446
Au 15.4058 28.1463 20.8459
Au 14.8419 10.8499 22.8185
Au 23.0562 28.7648 8.94589
Au 23.9754 31.5051 9.99191
Au 21.7627 27.7137 13.0415
Au 26.2448 23.7581 16.3051
Au 12.5549 19.3248 32.646
Au 30.9196 18.571 22.6176
Au 21.9226 31.0021 15.9922
Au 21.9765 21.4379 15.8366
Au 6.66508 19.2726 15.3697
Au 24.9111 9.91442 15.8056
Pd 12.7319 22.4813 18.6408
Au 27.5205 11.2027 22.4045
Pd 13.0498 28.1053 22.0954
Au 16.2286 29.8789 15.824
Au 13.1116 28.7982 19.3487
Au 7.21032 16.5461 15.8442
Au 20.5477 19.1128 16.4515
Au 17.4296 11.7351 22.8232
Au 22.5998 35.3686 24.4638
Au 11.9408 28.4583 15.2176
Au 11.9067 18.3962 27.3792
Au 27.9313 28.9293 11.0677
Au 28.056 20.5713 6.83009
Au 20.122 30.2689 17.9533
Au 11.9925 7.36481 23.8865
Au 24.7439 17.5452 9.19605
Au 5.72722 20.0463 18.8892
Au 31.1375 20.872 10.7284
Au 23.2632 15.4031 25.9194
Au 29.2218 11.3881 24.488
Au 8.24751 10.7704 19.4567
Au 33.7769 15.0555 23.3534
Au 12.0484 11.8406 16.5093
Au 10.7613 14.557 30.0937
Au 13.1287 15.1295 25.9704
Pd 20.0314 14.4018 15.4086
Au 13.3213 23.7394 28.6907
Au 24.1589 15.3309 31.0561
Pd 16.1612 31.6785 27.8758
Au 33.5498 16.3493 18.5412
Au 18.4735 10.4315 31.395
Au 11.8872 14.8018 17.4378
Au 20.1886 26.1851 6.58505
Au 27.368 17.4249 7.98752
Pd 17.5237 26.4653 29.2147
Pd 26.2781 24.7615 21.518
Pd 19.5601 25.3615 22.2774
Au 17.0957 30.5622 13.1979
Pd 29.681 23.3768 10.1671
Pd 19.685 32.2744 22.8482
Pd 30.1905 22.0781 17.7874
Au 16.4673 20.4004 27.0955
Pd 21.0977 27.6662 18.1107
Au 25.2616 11.2234 13.1599
Pd 20.8842 7.72339 21.7434
Pd 11.726 17.2672 24.9017
Au 22.4947 10.1562 10.3375
Au 22.2696 24.5322 5.38043
Au 17.2924 10.6011 17.981
Au 6.28898 15.352 21.1152
Au 16.5836 21.2239 19.0451
Au 9.70002 28.899 25.3474
Au 6.84477 19.3695 23.2056
Au 5.39647 17.1072 22.9123
Au 26.8101 17.9181 10.9247
Pd 23.2182 19.5023 8.10079
Au 10.044 23.6209 22.621
Au 14.3513 10.5633 17.5645
Pd 18.4707 20.7723 29.1356
Au 8.47545 27.8563 19.262
Au 17.4282 24.1381 5.73666
Au 7.77552 20.1691 25.6084
Au 24.5168 8.95924 11.6959
Au 27.755 14.5551 14.6058
Pd 20.0552 12.8824 19.4622
Au 13.2236 18.1771 20.8873
Pd 17.7211 29.3185 19.9385
Au 22.4071 14.384 14.0308
Au 9.16628 12.1289 13.3008
Au 14.7352 18.4842 28.5413
Au 10.1194 13.5144 15.4797
Au 18.9079 24.8835 32.537
Au 15.7735 8.47844 18.7422
Pd 18.2028 9.59215 13.5277
Au 15.2622 30.7118 19.526
Au 26.823 11.5792 29.4672
Au 9.65034 22.0124 15.4052
Au 25.1979 19.2698 30.3021
Au 19.6877 13.0515 7.40369
Pd 19.0723 28.558 13.0223
Au 10.3153 20.7343 10.8314
Au 23.7806 12.4082 15.455
Au 8.38508 20.9835 19.9136
Au 26.1308 19.764 8.4945
Au 21.3 19.4533 13.7974
Au 12.5039 30.7355 21.6698
Au 24.5757 12.6959 25.6801
Au 14.266 8.12842 22.8093
Au 18.3848 19.4427 6.96602
Au 20.4424 12.3236 10.2541
Au 23.3504 29.0808 29.5387
Au 22.3316 28.5596 20.4499
Pd 24.8489 16.369 28.6522
Au 13.2164 27.9556 12.933
Au 26.1728 19.2411 20.9767
Au 25.5766 29.8624 27.5056
Pd 14.5526 22.0565 8.98439
Au 19.9284 14.1207 28.6089
Au 7.51026 12.2503 26.4128
Au 17.2818 6.12116 18.7187
Au 25.1366 18.163 6.45128
Au 6.40061 22.6273 18.9274
Au 25.2192 7.38344 20.71
Au 14.9519 19.4379 10.2691
Au 14.1564 20.7921 20.3233
Pd 22.1914 26.0842 15.4905
Pd 26.5356 15.328 9.41797
Au 10.8854 16.588 22.1476
Pd 21.6392 22.1608 13.1754
Au 15.1645 23.3969 23.0587
Au 22.2288 13.2582 27.1986
Pd 15.9021 19.0548 21.8684
Au 12.2681 13.596 28.1776
Au 7.81985 24.7411 23.7996
Au 17.0859 25.1493 23.9104
Pd 22.1527 21.6579 9.1931
Au 13.3394 14.1998 30.7589
Au 9.9454 8.90591 24.2522
Au 25.3793 21.9893 30.3865
Au 20.3621 20.7646 21.8694
Au 9.56048 13.1481 27.859
Au 15.3348 25.3463 14.3442
Au 30.4416 27.2511 23.7156
Au 12.5923 19.1445 11.7644
Au 25.0471 26.8136 8.59479
Au 26.7986 7.74002 18.3527
Au 26.3542 22.6703 13.8242
Au 16.539 5.80077 16.0458
Au 25.4025 13.1134 8.17214
Au 23.6858 19.4693 27.9866
Au 18.1544 12.2805 14.3786
Pd 23.4952 27.3 24.4271
Au 11.8212 23.7327 31.2998
Au 16.3074 33.3008 19.6021
Au 16.0851 13.2426 24.7037
Au 8.25735 17.391 13.5169
Pd 22.9455 7.81974 16.4291
Au 22.7968 26.6844 7.04479
Au 19.7581 32.7337 16.3079
Pd 11.7225 17.4684 16.7855
Au 20.5454 23.1535 31.3061
Au 18.9652 24.7062 8.42384
Pd 9.29018 22.6091 25.0893
Au 18.8475 12.6332 17.0363
Au 6.98362 19.7046 28.1594
Au 30.0048 12.7077 26.6186
Pd 19.6921 8.586 29.9676
Au 12.6625 21.8909 33.2117
Pd 31.1688 22.6246 15.313
Au 29.1019 16 18.7542
Pd 23.6357 27.0767 11.0858
Au 9.80968 10.9081 26.1364
Au 23.3873 21.2561 20.605
Au 22.1847 16.959 23.9389
Pd 26.4007 24.3117 9.52636
Pd 24.6165 20.0326 10.6218
Pd 18.8452 14.7646 31.2969
Pd 14.5917 25.9504 11.7825
Au 19.1815 25.9486 16.9174
Au 29.5081 24.0482 27.1966
Pd 20.8955 19.3441 28.6937
Pd 14.2568 17.6924 26.1124
Au 21.325 27.4172 22.7328
Au 25.7732 14.6653 16.4518
Au 18.2755 20.023 23.4942
Au 24.7759 22.1923 8.69458
Au 28.7917 25.213 22.8405
Au 19.2684 22.3536 33.7687
Pd 13.7594 16.721 18.5571
Au 12.6109 22.4726 15.5238
Au 8.66548 21.8619 27.685
Au 12.7049 31.4551 18.914
Au 13.3453 23.6429 13.008
Au 28.644 25.8809 9.73051
Au 30.0915 13.9983 20.599
Au 27.2593 31.998 23.5165
Pd 12.5725 25.5168 26.7433
Pd 27.9254 28.9642 17.011
Au 18.8224 22.3812 20.1437
Au 21.9545 17.3535 9.71695
Au 21.9224 24.7641 23.5241
Au 12.8664 21.7981 11.0125
Au 28.9666 18.046 29.4499
Au 17.6167 24.9165 26.8986
Au 23.1022 29.7046 11.5847
Au 11.0405 18.6114 13.9622
Au 15.6083 18.6649 19.2342
Au 15.0181 6.74518 20.603
Pd 20.6224 15.4453 6.34232
Au 10.1457 11.9537 20.8837
Au 14.4463 12.6943 15.4492
Au 14.3116 25.5633 21.6225
Au 13.9953 32.7942 20.8858
Au 14.1692 7.88061 25.5443
Au 20.2096 7.87359 17.0016
Au 20.812 28.6435 7.6195
Au 24.199 26.7098 13.7744
Au 27.655 20.4077 29.8085
Au 16.7299 23.5536 33.479
Au 30.4893 15.0416 27.9824
Pd 31.3773 15.7344 22.5615
Au 23.3191 23.2127 31.8053
Au 14.9122 23.3824 19.912
Au 15.0911 25.8193 28.3
Au 15.3256 27.85 30.1317
Au 13.726 29.5178 24.3216
Au 14.915 19.2022 33.9689
Au 11.2499 21.973 28.7986
Au 10.5481 17.0893 29.4728
Au 6.58434 18.2216 20.6571
Au 17.6306 31.5669 21.2435
Pd 24.9711 17.3865 16.9279
Au 7.57803 23.3282 21.3928
Au 30.1861 29.6728 15.768
Pd 14.0257 20.8786 22.9425
Au 23.6418 25.5029 27.4968
Pd 33.3854 18.244 16.5354
Au 9.84676 12.5529 18.0448
Au 31.1608 23.683 22.1252
Pd 23.8058 26.0473 21.9296
Au 18.487 27.4381 31.6562
Au 22.9258 12.5538 9.17042
Au 18.795 9.20786 22.6477
Au 33.0086 21.6828 12.6449
Au 22.1216 15.8542 28.422
Au 8.91426 9.68996 21.8766
Au 11.2471 20.8604 20.6001
Pd 25.245 11.4 20.4144
Au 30.7591 19.9414 16.1676
Au 33.0921 14.8614 20.7278
Au 24.1993 18.4643 12.7633
Au 19.5592 19.6102 33.7479
Au 22.9256 13.9646 6.87408
Au 10.5456 29.128 22.5941
Au 13.6396 32.2924 23.7134
Au 13.9516 15.103 8.59076
Au 13.4539 11.0798 11.7727
Pd 14.6012 26.3098 8.71143
Au 25.8145 23.8911 26.9767
Pd 19.8987 15.515 23.4375
Au 17.2607 21.8499 16.4911
Au 17.5826 11.0168 25.5303
Au 19.2547 30.9505 11.3201
Au 30.6995 24.6783 24.7967
Au 28.8825 9.72949 18.4847
Pd 25.7541 25.0535 18.8726
Pd 23.5598 26.6452 18.9155
Au 31.4883 14.7577 13.7645
Pd 18.0389 33.9615 24.2035
Au 7.86373 14.9287 26.3853
Pd 19.4778 17.4857 25.117
Au 30.2225 24.9818 16.8833
Au 23.6638 7.35888 13.9094
Au 26.7716 14.5016 19.121
Au 28.6894 31.1391 20.979
Au 10.5514 30.0448 19.9005
Pd 22.8374 17.8454 30.0724
Au 26.237 31.0958 11.537
Pd 23.2663 20.3581 17.9073
Au 27.6433 21.9575 9.09489
Pd 24.3604 15.8878 19.032
Pd 12.0768 22.7298 26.2911
Au 31.5254 19.2711 25.7071
Au 10.3805 21.6172 18.0332
Au 28.0814 20.9864 19.5077
Pd 18.9952 13.267 24.6949
Au 17.4855 17.4272 23.3423
Pd 22.3912 17.627 17.6929
Pd 26.7721 17.3221 18.9175
Au 23.4475 19.0109 15.4322
Au 18.0439 12.5546 29.8661
Au 6.79936 22.2087 24.0072
Au 31.522 27.4154 16.0881
Pd 27.9104 18.2617 22.9681
Au 22.6625 11.2246 19.0827
Au 15.5304 15.908 24.5299
Au 13.5258 29.9267 16.8319
Au 22.3023 13.4332 29.9838
Au 7.40501 18.2322 17.9911
Au 11.5405 22.4175 8.783
Pd 15.8758 20.8318 29.7625
Pd 8.6278 16.4762 20.011
Pd 10.4873 14.4441 19.8391
Pd 20.8975 19.4136 24.2222
Au 23.267 31.2535 27.9934
Au 17.092 16.8891 11.7611
Au 15.2954 21.4135 32.4629
Au 18.5426 29.6303 26.0762
Pd 21.6292 25.7956 20.5554
Pd 27.2883 13.824 21.7877
Pd 23.8073 15.1071 9.17083
Au 13.5101 20.0116 14.5156
Pd 11.4523 20.0863 16.1977
Au 18.2538 13.9393 9.68717
Au 20.8082 10.3714 21.1259
Au 27.5375 9.06942 16.1319
Au 16.2633 10.4514 15.3657
Au 7.78503 13.5777 19.5425
Au 22.4998 35.7556 21.828
Au 17.5266 8.16932 16.6374
Au 15.1963 16.3607 21.7001
Pd 25.9824 22.1594 20.9724
Pd 14.6326 18.482 16.6175
Au 6.68495 14.891 23.8361
Pd 21.5365 26.2021 25.8737
Au 19.9769 6.14544 19.432
Au 9.14368 27.0897 23.4576
Au 20.1995 19.3122 4.67995
Au 19.0768 6.68416 23.703
Au 25.5097 7.21443 16.0254
Au 21.718 16.831 20.1714
Au 25.7066 27.9079 18.0439
Au 29.136 15.5289 30.3433
Au 16.8976 28.9851 28.2694
Au 17.1848 14.6169 15.4869
Au 20.2583 35.0596 23.0437
Au 28.2489 25.9497 19.8786
Pd 15.813 30.017 25.9225
Au 14.2037 24.0021 32.7036
Pd 17.5436 19.5373 31.7488
Pd 11.65 9.63051 21.9246
Au 16.403 25.7413 31.6681
Au 7.03054 17.3398 25.1414
Pd 29.4272 18.6426 11.9657
Pd 17.5744 14.3696 12.6264
Pd 22.1468 10.2655 16.5406
Au 17.3069 22.3805 13.0774
Au 13.4603 12.6933 9.59695
Au 10.1841 26.4144 15.6878
Au 22.309 21.7705 23.5866
Au 5.32599 21.398 16.678
Au 15.6227 20.0252 7.54748
Au 23.663 24.7377 9.75251
Au 29.6465 14.1601 11.6097
Pd 10.471 20.394 26.1847
Au 30.7476 28.1448 13.5161
Au 15.2449 22.7144 14.8926
Au 25.4078 30.3933 16.8617
Pd 22.9923 9.96736 13.8393
Au 22.8069 12.1414 12.2489
Au 22.6621 34.8754 19.2004
Pd 18.2018 14.8674 18.3284
Au 16.136 13.0314 17.5617
Pd 25.7619 26.7933 26.1695
Au 11.3151 21.3722 13.2795
Pd 17.8892 15.4167 25.7967
Au 15.5991 23.5433 30.4407
Au 16.5101 28.6511 23.6769
Au 29.244 19.9312 24.6016
Au 26.1591 31.0144 14.2267
Pd 13.1522 15.4296 23.3208
Au 6.18558 23.9683 16.5948
Au 9.82927 19.6751 28.9028
Pd 11.636 19.267 22.8046
Pd 17.5457 22.0113 7.39893
Au 30.3975 23.0264 12.7694
Pd 28.5431 21.1987 14.4122
Au 21.3441 6.07805 15.0563
Au 28.6086 18.9219 17.5719
Pd 7.90073 20.8521 17.1985
Au 11.1175 12.3104 11.1381
Au 14.1529 27.7773 26.5176
Au 7.76166 26.2967 16.8761
Au 22.6546 12.2708 21.6099
Au 22.8193 19.5419 5.45869
Au 23.4468 28.2807 26.9242
Au 23.7245 8.54242 27.8557
Au 30.7574 26.3904 21.0974
Au 15.2523 22.5807 6.17779
Au 23.0217 33.1995 26.0816
Au 13.9708 18.0415 23.4794
Au 20.5509 11.1766 29.4587
Au 28.2058 10.3873 13.8738
Pd 30.7821 20.3773 13.47
Au 11.4535 30.8185 24.5003
Au 32.008 13.0902 22.8402
Au 16.5486 8.69486 24.145
Au 31.4891 14.6469 18.3752
Au 14.5779 15.276 16.4031
Au 25.409 15.5457 6.98775
Pd 8.05267 16.9523 22.6198
Au 12.3205 7.18451 21.1689
Au 14.9096 10.5781 25.6267
Au 17.5264 31.2069 17.861
Au 25.4984 29.1536 9.90396
Au 17.8355 14.9489 6.97286
Au 21.8836 18.6584 32.4294
Au 25.5042 31.9515 25.7228
Au 10.4589 27.093 27.2807
Pd 19.94 25.8097 30.1501
Au 15.0136 16.6007 32.9928
Pd 22.0718 14.7932 22.1757
Pd 24.8719 20.7026 22.9269
Au 10.307 14.4419 12.6017
Au 18.957 27.1341 24.38
Pd 20.3235 30.622 20.5849
Au 26.4407 20.0248 25.1118
Pd 27.8057 22.2286 26.0692
Au 18.6798 22.4271 27.0734
Au 24.5935 31.3825 23.1046
Au 32.1351 22.1278 19.8798
Pd 20.9713 23.8167 10.606
Pd 28.8968 27.1862 15.2316
Pd 9.9035 19.0205 18.5112
Pd 12.9902 16.1715 28.5837
Au 22.6062 11.014 31.508
Au 17.1562 20.7795 34.2144
Au 25.2925 17.8792 23.5467
Au 22.9867 10.3647 23.4556
Au 18.8199 30.0045 8.82423
Au 24.5381 9.23715 18.4522
Au 24.2904 6.48554 18.4018
Au 20.3087 10.94 24.1133
Au 18.0271 11.7505 11.659
Au 12.9467 15.0168 20.644
Pd 11.0059 13.4062 25.535
Pd 19.1375 19.713 26.5584
Au 10.2237 16.1626 14.8556
Au 31.0809 17.5064 17.4946
Pd 14.5761 27.706 15.4823
Au 20.1059 20.4423 31.2124
Au 29.7607 30.3579 18.4296
Au 23.6313 22.4863 28.2233
Au 24.4756 32.5187 18.5647
Au 27.7892 30.4072 25.6328
Au 9.47143 18.6073 24.2147
Pd 17.4082 25.6359 12.7525
Au 21.6968 32.4284 18.5135
Au 20.4537 34.0301 25.5103
Au 12.8521 24.2843 24.17
Au 17.0532 24.4754 21.1234
Pd 18.9569 27.355 8.99289
Au 8.24117 26.567 25.9564
Pd 33.0847 20.0648 14.7196
Au 21.4083 6.80842 28.4755
Pd 19.7342 27.7115 20.4311
Au 15.4961 13.6353 29.2655
Au 11.8809 10.7273 19.0544
Au 20.193 34.8621 17.8959
Au 23.1062 22.1829 6.48402
Pd 22.9906 16.6734 7.12501
Au 17.4778 16.8282 20.454
Au 26.5989 18.4354 28.1605
Au 25.4108 22.307 18.5037
Au 17.4349 19.0842 17.0382
Au 23.1417 30.5277 25.355
Au 21.8963 16.9355 12.5554
Au 29.661 26.6271 26.3788
Au 12.6935 26.7773 17.397
Pd 19.2246 10.2129 15.8921
Au 15.2357 30.6027 22.2622
Au 7.8813 10.6321 24.2359
Pd 24.1525 28.797 22.3371
Au 19.5416 22.1265 9.04922
Au 28.1021 31.3586 16.0227
Au 18.2292 23.7975 29.4773
Pd 24.7467 25.8985 16.3759
Pd 21.2845 23.2343 21.3625
Au 21.7844 30.2119 22.8917
Au 27.5836 26.077 17.1605
Au 19.7957 26.1298 14.197
Au 29.4829 13.878 23.4041
Au 10.6062 15.6329 27.0929
Au 23.4628 23.4925 17.0795
Au 29.9132 27.5567 18.3333
Au 12.5485 14.6193 14.6604
Au 12.3011 25.0387 19.6117
Au 21.7382 24.1091 7.96396
Au 26.351 16.3897 21.3023
Pd 18.3031 10.9735 20.427
Au 26.3831 26.6318 10.9952
Au 29.267 29.865 23.3166
Pd 20.4907 10.4983 12.3625
Au 24.9095 21.3774 15.9222
Au 18.6663 8.471 19.5005
Pd 19.9661 17.9028 22.0235
Au 24.7099 14.0323 20.9935
Au 30.5146 24.2591 19.4992
Pd 20.5871 15.1198 26.0445
Au 18.8047 17.157 5.56389
Au 15.5064 23.5445 11.1778
Au 18.2409 34.2717 21.4117
Pd 14.5474 12.9994 26.8486
Pd 28.4911 13.6594 17.2065
Au 31.6906 21.3093 23.7282
Au 21.1616 30.6231 29.9079
Au 20.1889 6.30269 26.1293
Au 6.08511 21.8629 26.7561
Pd 21.231 33.3761 21.0014
Au 29.0399 16.4968 10.2056
Au 19.3849 17.7034 18.7785
Au 31.5697 17.6401 14.4012
Au 8.30477 11.5539 15.8752
Pd 19.4637 23.2059 17.3102
Au 12.8088 27.5484 28.837
Au 13.4749 13.0319 18.7234
Pd 24.4014 8.90213 25.2434
Pd 13.8865 9.55185 20.4805
Pd 19.9424 21.8119 24.835
Au 19.3594 24.918 19.5545
Au 14.7723 26.0511 19.0344
Au 21.8001 33.0204 14.1562
Au 17.112 22.2999 24.8434
Pd 22.2958 24.4316 29.6027
Pd 19.3663 28.5375 29.4178
Au 23.4155 22.6127 11.3138
Au 15.1281 16.2676 30.1445
Au 22.3958 34.0623 16.5731
Au 15.897 22.9272 27.7937
Au 24.7525 12.5114 30.9838
Pd 22.4619 16.1879 33.4003
Au 15.0598 24.6666 25.7914
Pd 22.2594 14.5591 11.2686
Au 14.7076 6.01691 18.0013
Au 25.1116 11.0161 9.95576
Au 12.6874 19.4399 18.4957
Au 8.72394 20.0447 13.5295
Au 26.6587 19.8547 12.8545
Au 17.5276 13.2011 27.2334
Au 15.0852 25.3503 6.17872
Pd 10.5373 11.4433 23.5415
Au 12.3863 11.2768 26.771
Au 15.9273 28.0728 13.0198
Pd 27.9947 27.867 24.7019
Pd 17.3257 6.57218 25.6999
Au 26.1689 8.60498 13.743
Pd 10.3719 25.1726 24.9422
Au 24.7787 17.6624 26.2405
Au 11.8749 27.4587 24.6841
Au 20.3428 12.4897 31.7961
Au 26.574 11.0371 17.8387
Au 25.3139 20.7805 6.1285
Au 12.4006 19.2141 29.941
Pd 21.6578 27.0935 28.5806
Au 28.2286 10.78 27.111
Au 22.6635 19.0824 22.1391
Au 21.8708 5.63564 17.6835
Au 12.747 25.7234 14.8651
Au 21.3457 21.7935 4.46068
Au 21.6515 32.2597 11.5181
Au 22.3857 14.1365 19.5259
Au 24.1723 16.4094 14.5499
Pd 8.62851 23.5796 17.4789
Au 6.11123 21.0877 21.365
Au 13.3951 21.653 30.6018
Au 14.6716 8.07138 16.2142
Au 9.75044 9.87118 17.4294
Au 15.5648 12.4733 13.0533
Au 15.4924 14.8398 19.452
Pd 18.136 23.799 10.7568
Au 33.764 22.6136 15.2181
Au 16.1816 24.1475 8.42225
Au 15.0999 32.1851 17.2386
Au 28.8739 18.5311 20.4049
Au 17.0187 17.849 26.3774
Au 29.2585 16.2953 13.2468
Au 16.5479 17.454 6.91733
Au 26.1117 28.1809 15.2137
Au 25.5358 9.34457 22.7105
Au 32.2872 12.4172 20.2702
Au 22.6502 6.09492 20.6184
Pd 6.57306 15.7916 18.4619
Pd 10.0035 23.4605 19.9254
Au 17.4774 9.22745 10.7998
Au 20.7403 20.886 6.90495
Au 21.0431 11.8709 14.6556
Pd 22.1515 25.0408 12.6517
Au 21.9298 8.07618 11.9464
Au 21.0496 28.6943 25.0709
Au 28.9964 13.1421 29.0824
Pd 15.8501 19.6521 24.6007
Pd 23.8252 16.67 21.7105
Au 32.5716 16.9739 24.7326
Au 30.3408 29.0151 20.7958
Au 18.5674 7.31853 28.0197
Pd 27.9138 24.2062 12.0347
Pd 30.8746 19.7925 19.0763
Au 19.7241 16.9702 33.1447
Au 25.9414 15.2325 26.1404
Au 17.8836 12.6822 32.8267
Au 6.87825 23.2784 28.9634
Au 31.4632 14.576 25.1973
Pd 16.3099 26.0358 16.7929
Au 27.4672 12.6332 12.5811
Pd 17.8431 22.1645 31.5081
Au 21.4364 23.8192 33.8541
Au 32.5005 18.9095 12.1286
Pd 31.3727 16.5035 11.7169
Au 33.3661 18.8449 19.1829
Au 15.9581 11.0893 28.2637
Au 22.7232 20.812 30.3613
Au 26.5711 10.5718 24.9445
Pd 18.7485 22.9139 22.7699
Au 20.2319 35.7336 20.3537
Pd 26.4169 19.2051 15.4865
Au 24.0885 33.7695 21.2983
Pd 16.6199 21.6051 21.7791
Pd 27.092 13.1599 24.5092
Pd 27.0969 13.1109 27.2182
Au 7.67567 13.9725 16.7983
Au 28.6271 26.8128 12.5282
Au 14.227 17.7753 8.28259
Pd 29.1261 11.2621 16.263
Au 10.6375 21.2329 31.3886
Au 28.5988 21.2741 11.6245
Pd 27.6442 21.4134 16.8171
Pd 16.4858 16.6676 17.6555
Au 22.7252 13.6023 32.6729
Au 28.5225 23.2041 21.0785
Pd 17.299 16.9045 31.5508
Au 17.5995 15.5227 29.0014
Au 6.6473 17.0305 27.7868
Au 26.6911 14.2786 30.1438
Au 11.5775 21.7514 23.8158
Pd 15.112 15.3228 13.467
Au 16.3663 8.62449 27.0624
Pd 20.0454 11.8537 26.735
Au 21.3427 15.6842 31.1184
Au 25.2423 24.5806 29.5879
Au 13.6917 25.7125 30.6898
Pd 28.3481 27.6374 21.989
Au 30.3944 12.026 18.5217
Au 19.0827 29.3858 22.7072
Au 15.8974 11.4486 31.0502
Au 21.3053 28.1163 31.137
Au 32.9442 20.8892 17.3808
Au 14.2967 16.549 10.8824
Au 16.4856 16.0515 9.16672
Pd 18.6984 18.8556 14.4055
Au 19.3271 7.71519 12.0711
Au 21.99 13.1813 24.384
Au 32.8998 25.1789 15.6866
Au 28.9903 23.8821 7.69248
Au 23.1028 15.0521 16.6988
Pd 17.3898 26.6436 19.2344
Au 31.1289 18.3398 9.82774
Pd 20.9294 18.1732 7.0083
Pd 17.4334 18.6607 9.47307
Pd 21.4918 26.4163 9.3885
Pd 26.0672 22.1774 11.2489
Au 27.0376 9.43032 20.3732
Pd 11.3064 24.2044 16.9391
Au 28.742 19.3895 9.3862
Au 14.9133 18.7706 31.31
Pd 27.809 28.8824 19.6831
Au 16.8338 26.2242 10.1741
Au 23.0896 31.3273 20.768
Au 21.043 10.9061 8.0649
Au 33.443 19.2508 23.8156
Au 24.8722 9.83331 30.1363
Au 29.851 16.8942 24.4187
Au 15.5994 14.0639 10.8094
Pd 20.6529 28.6875 10.6849
Pd 11.1688 13.8699 22.7089
Au 15.9994 14.2544 31.8344
Au 16.5086 17.202 14.8656
Au 30.6685 25.4657 14.1433
Au 30.0783 11.5318 21.6669
Au 19.9258 23.4134 6.11377
Au 23.398 28.2335 16.4622
Pd 9.17705 18.5662 15.9379
Au 27.5442 25.6827 28.1195
Pd 7.46329 24.0724 26.4157
Au 25.9176 19.7099 18.159
Au 14.2818 30.0969 14.0915
Au 10.9664 27.4758 20.3232
Au 19.2146 32.4304 13.5678
Au 24.4514 17.6831 32.3201
Au 29.98 15.6135 15.9012
Au 17.5146 28.8429 10.9032
Au 7.2337 25.1749 19.196
Pd 20.2858 24.6742 27.738
Au 16.29 7.75787 14.1201
Au 24.0952 21.0344 13.3847
Au 20.1221 19.4695 9.26599
Pd 15.5076 15.6109 27.326
Pd 27.1565 15.2059 11.9272
Au 27.7376 28.2857 27.3701
Pd 12.8462 12.1208 21.3547
Au 16.2417 20.0304 14.7395
Au 18.3057 32.4741 26.4341
Au 8.03478 21.0564 30.2981
Pd 22.5882 10.7602 26.045
Au 9.00005 21.0629 22.7261
Pd 18.2542 19.5457 20.563
Au 13.5754 31.4893 26.3386
Au 29.2645 22.6512 23.8284
Au 24.5766 16.0854 11.6632
Au 19.7157 17.7758 30.5381
Au 33.4602 17.398 21.8227
Au 27.5997 17.6469 25.77
Pd 18.8819 16.7627 16.2987
Pd 12.5115 19.8869 9.08497
Pd 11.2536 16.998 19.4691
Au 23.5986 26.5772 30.5223
Pd 19.1351 32.8196 19.3019
Au 13.5769 11.627 29.4373
Au 21.7978 21.2954 33.1893
Au 13.864 9.30158 27.9286
Pd 27.2514 15.7579 23.7756
Au 27.2445 31.4112 18.5912
Pd 19.3097 27.1945 27.1346
Au 11.6871 14.7546 10.1105
Au 10.779 23.5004 11.2477
Pd 24.0509 23.3742 22.4303
Au 26.0454 26.6744 23.3888
Au 20.8428 22.1742 28.7652
Pd 21.8412 17.8808 26.5354
Au 24.4501 22.0164 25.4469
Pd 16.0506 13.2714 8.3008
Au 15.7428 32.8188 25.4016
Au 18.9501 8.75388 25.6391
Au 17.0075 21.3757 10.0285
Pd 19.6509 15.2892 20.6929
Au 17.8363 24.2347 15.198
Au 26.6989 25.639 14.1755
Au 21.7732 20.8209 26.5561
Au 14.5799 26.6989 24.0153
Au 10.7393 24.1336 14.0175
Au 22.0545 19.8373 11.2481
Pd 20.7163 15.4522 17.8888
Au 12.6165 16.8147 31.3726
Au 9.41239 18.7968 21.2004
Au 13.0898 24.4434 10.0731
Au 27.717 15.872 28.1628
Au 11.5403 25.8444 22.3745
Pd 28.0404 23.6081 18.3823
Au 9.32711 23.4868 30.0479
Au 19.3822 21.5091 14.7787
Au 17.8112 6.70774 21.3668
Au 24.4253 24.7727 24.7457
Pd 26.6731 12.1622 15.3772
Au 20.8477 32.4086 27.7201
Pd 8.67276 13.1675 24.2815
Au 23.4807 19.4938 24.8943
Au 26.4726 23.0705 23.7326
Pd 20.9737 23.8394 15.2586
Au 30.1555 21 21.4714
Au 28.2721 29.4262 13.7653
Au 10.0921 24.1533 27.3536
Au 24.0152 32.0592 12.7738
Au 23.7767 23.7578 14.4167
Au 25.533 29.2115 24.7966
Pd 17.5634 27.0541 21.8963
Au 17.2868 18.0003 34.0452
Pd 18.8864 30.3189 15.3135
Pd 15.0034 18.279 12.8445
Pd 16.9974 23.9516 18.2843
Pd 20.1464 10.4311 18.3782
Au 11.6491 8.66889 26.3715
Pd 12.6596 9.9912 24.3191
Au 18.7528 6.80155 14.5547
Au 16.4335 28.4847 8.48632
Au 21.5495 24.9945 17.9464
Au 13.1291 21.2139 6.90234
Au 27.0807 10.1589 11.4561
Au 18.2016 11.2588 8.90663
Pd 21.4618 16.8258 15.2413
Au 11.9277 12.1547 13.7163
Au 32.7057 15.6366 16.0443
Pd 20.5168 31.3635 25.2152
Au 28.9318 18.5039 14.7505
Pd 25.1926 14.0393 13.6892
Pd 17.5349 13.4761 20.49
Au 14.5579 21.1482 17.1393
Au 21.6651 5.75289 23.799
Au 20.6867 28.4052 15.5468
Au 22.2814 32.9255 23.4603
Au 19.6892 26.191 11.4037
Pd 11.1933 25.4643 29.3601
Au 21.2923 19.4978 19.651
Au 30.7921 25.5272 11.4664
Au 24.2219 32.4298 15.5587
Au 15.738 11.3317 10.2412
Au 27.1021 25.6699 7.388
Au 25.9552 21.0551 27.7277
Au 17.299 26.45 7.08649
Au 23.5478 7.43326 23.0131
Au 27.7338 25.0321 25.3058
Au 30.0313 17.4636 27.0609
Au 20.265 14.417 33.6237
Au 19.2946 20.6489 18.1631
Au 13.3107 23.9541 7.45922
Au 9.06238 17.865 26.9485
Au 12.6503 23.0664 21.5595
Au 26.6681 23.0146 6.76192
Au 8.02381 14.5821 14.1293
Pd 23.986 18.498 19.7146
Au 9.368 16.0183 17.5006
Au 21.8867 8.25665 19.0507
Pd 27.5498 16.6953 16.3504
Au 7.0125 21.9822 14.7709
Pd 14.2287 24.2241 17.0447
Au 15.55 11.6385 20.0604
Au 20.1205 13.5264 12.7
Pd 28.7327 19.9564 27.2924
Pd 18.4692 10.1791 28.0857
Au 32.8067 20.0999 21.41
Au 17.2921 19.667 12.1489
Au 20.8102 8.60964 14.3892
Au 20.9914 9.13848 27.4417
Au 13.646 10.1516 14.5154
Pd 21.5827 12.8645 17.1578
Au 25.0278 13.4301 11.0485
Pd 25.0171 12.1413 23.0556
Au 14.9496 21.137 12.483
Pd 28.7652 14.9295 25.8909
Au 17.581 33.9711 17.3801
Au 32.5926 23.5225 17.6519
Pd 21.0444 29.6217 27.5135
Au 17.6076 15.2912 33.7553
Au 18.7394 30.9801 28.6009
Au 23.147 11.1473 28.6988
Au 32.8643 24.2782 13.1578
Au 26.1968 32.2112 20.9739
Au 24.6894 13.6093 28.3943
Au 13.3826 17.1833 14.6738
Pd 13.2461 13.8988 12.09
Au 22.9942 30.0269 18.3277
Pd 11.8762 25.8013 12.1994
Au 20.142 5.10416 21.7872
Pd 15.5796 28.4529 18.0248
Au 28.0413 12.1122 19.7993
Au 13.2826 12.7216 24.2255
Au 22.8331 6.81025 26.0557
Au 8.92743 25.7774 21.1556
Au 19.148 16.7837 8.44771
Au 22.1006 23.4837 26.0263
Au 21.5077 22.2762 18.8111
Au 19.6269 18.3814 11.7144
Au 18.5853 21.401 4.99915
Pd 31.317 17.0896 20.1674
Au 8.78666 22.6098 12.772
Au 9.96192 18.1306 11.5221
Au 25.442 10.647 27.361
Au 19.5583 24.4672 25.008
Pd 25.238 29.9163 19.8727
Pd 21.3747 30.8142 9.3323
Au 12.9132 7.87625 18.6853
Au 19.1958 16.2918 13.6429
Pd 14.526 22.0282 25.4323
Au 27.4521 12.8019 9.97109
Pd 28.9742 16.1562 21.6311
Au 15.9647 33.3117 22.6323
Au 25.803 27.3089 20.6666
Au 32.2686 23.3611 10.6965
Au 10.1157 18.642 31.5789
Au 16.8224 9.00831 29.8004
Au 23.3825 9.31466 21.0057
Au 16.7301 27.2815 26.0797
Au 24.5562 12.9556 18.1501
Au 17.358 18.3286 29.1219
Au 7.97889 17.9931 29.9632
Au 18.2864 28.449 17.412
Au 26.7122 29.6781 22.2805
Au 19.9059 12.9313 22.1575
Au 24.8345 33.9184 23.9447
Au 8.74151 14.4761 21.9345
Au 17.4622 31.2586 24.0432
Pd 23.5484 23.9611 19.8669
Au 19.9593 9.3623 9.96833
Au 13.6705 20.9108 27.8179
Pd 17.0931 32.3787 15.3047
Au 14.2822 29.7902 28.3564
Au 30.5456 21.8298 26.1592
Au 32.1853 26.117 18.4229
Au 26.6878 16.9791 30.6463
Pd 10.3751 8.70697 19.794
Au 10.414 10.2781 14.8151
Au 10.6562 28.5391 17.667
Pd 15.6752 9.86557 12.6378
Au 14.7901 28.3227 10.5823
Au 8.23322 24.4634 14.9018
Au 21.6958 25.6582 32.1202
Pd 25.0489 24.6245 12.1531
Pd 26.6177 17.1518 13.6897
Au 12.9449 19.8811 25.2883
Au 8.45061 15.4454 28.9611
Au 24.6348 14.8334 23.6257
Au 19.53 17.0292 27.8231
Au 19.719 15.7769 11.0064
Au 21.0604 30.4073 13.401
Pd 25.6698 28.6952 12.6038
Pd 11.9929 29.3322 26.7629
Pd 19.5725 23.7971 12.9749
Au 23.7098 29.7279 14.2794
