923
Atoms. Timestep: 20745
Au 27.091 23.4227 31.5728
Au 12.192 30.0512 13.8265
Au 16.5182 12.1943 21.1032
Au 23.9999 18.0403 26.6778
Au 21.1595 24.8809 12.8378
Au 18.4623 6.15755 14.3911
Au 12.6007 6.79781 21.6838
Au 22.3075 19.3512 33.6473
Au 23.0764 13.1101 11.5634
Au 16.9778 28.0996 23.4277
Au 20.8931 21.4068 31.8949
Au 6.81453 19.3391 23.6385
Au 7.2398 13.2627 13.888
Pd 12.0087 22.7885 12.6852
Au 18.7486 22.1594 7.04869
Au 22.0157 13.9458 8.9387
Pd 12.5766 27.1649 18.4229
Au 5.7614 14.8341 18.2741
Au 13.3472 19.497 32.1851
Pd 29.9215 25.6184 22.9733
Au 7.65145 10.7027 14.7497
Au 20.2981 19.5304 14.5908
Pd 10.4733 7.27952 15.3802
Au 20.7053 10.7754 26.2127
Au 14.0015 28.6842 26.0685
Au 8.28291 24.0627 18.22
Au 14.3565 24.1558 24.7908
Au 16.5519 24.5546 10.4842
Au 18.0145 32.0761 26.556
Au 30.9764 16.6573 20.1411
Au 6.16145 17.0901 25.0402
Au 26.1127 7.06959 13.545
Au 17.6898 22.5743 12.1504
Au 14.1998 17.4373 23.2065
Au 9.89843 22.1606 17.1209
Au 32.9412 14.616 20.1715
Au 23.4671 29.3583 21.8043
Pd 16.978 35.2736 18.2239
Au 24.591 26.6751 15.1118
Pd 24.3166 18.9567 29.3209
Au 7.97842 19.2278 26.0761
Au 26.5397 14.1306 25.2058
Au 27.8612 19.1762 25.5787
Au 23.1188 34.5308 23.4806
Au 28.6235 22.6384 22.8912
Au 20.1894 15.4166 7.32553
Au 15.8934 10.3768 13.2291
Au 34.1346 16.085 18.2431
Au 13.6764 14.2695 21.968
Au 25.8395 21.8636 18.1535
Au 9.84667 25.954 24.6532
Au 23.0033 18.9836 6.52766
Au 15.983 30.6635 27.7517
Au 6.86988 21.6341 22.1867
Au 27.247 23.361 16.2966
Au 18.8993 8.52331 24.7586
Au 30.654 14.4497 21.6279
Au 19.5111 28.8035 24.4466
Au 14.8314 8.7864 15.3633
Au 12.6505 14.766 24.5618
Au 17.1416 7.93283 12.4697
Au 20.9568 11.7196 16.6567
Pd 28.4837 30.0309 14.346
Au 22.7178 28.5209 18.5612
Au 9.68701 18.7929 10.4137
Pd 24.1235 35.4771 18.2984
Au 11.4459 22.1681 27.9509
Au 18.6374 34.2047 24.9214
Au 29.4572 17.3672 17.8438
Au 25.8663 28.1164 25.3652
Au 27.9687 20.5314 8.83586
Pd 14.1213 26.0734 27.455
Pd 8.04576 10.5402 17.4706
Pd 12.4619 19.3793 27.5767
Au 11.424 20.1664 12.225
Pd 17.8129 32.8038 17.9455
Pd 9.00356 14.3576 20.2499
Pd 14.0768 10.6055 17.7216
Au 21.8665 19.506 21.866
Pd 15.7531 17.8302 27.7409
Au 22.209 35.947 16.4119
Pd 20.5467 10.8278 21.1512
Pd 17.609 14.9873 14.8884
Au 34.302 19.9033 21.0687
Au 25.9849 11.7341 21.1712
Au 31.6014 21.0409 15.3234
Au 30.2991 19.9057 27.4668
Au 27.6918 8.81113 14.8959
Au 30.488 29.5868 16.2514
Au 11.5218 19.9572 16.6585
Au 18.2949 26.1117 20.6511
Au 17.4504 14.8485 7.33967
Pd 15.9728 19.8393 22.8817
Au 27.8808 29.0471 17.1341
Au 22.2256 29.5151 13.1052
Pd 17.2171 24.3458 30.2633
Au 19.4587 12.0756 19.0901
Au 27.3499 7.51864 22.047
Au 13.5931 31.7749 15.5508
Au 29.0386 33.5231 18.551
Au 22.1722 33.4028 17.0082
Pd 20.054 16.4641 19.3466
Au 31.3187 32.125 17.3002
Pd 11.752 18.5862 30.1441
Au 23.008 26.2095 31.4974
Au 22.4004 9.29361 28.0171
Au 9.18437 6.15753 17.5009
Au 28.9613 18.6201 20.3073
Au 13.3143 6.8273 24.5919
Au 27.7204 14.1669 12.0163
Pd 24.4503 29.2505 11.4611
Au 32.9828 23.3525 25.4238
Au 19.6229 8.79322 27.5961
Au 30.1329 23.3625 16.2228
Au 21.5258 16.8405 26.0308
Au 26.4015 24.4655 18.9921
Pd 20.7096 20.3057 7.25654
Au 24.1036 22.6308 25.1598
Au 15.8339 16.9245 14.8862
Au 21.091 14.1203 20.4936
Au 16.4966 26.1207 18.2354
Au 7.62272 16.696 19.5062
Au 9.54304 21.4915 22.0585
Au 26.7142 21.6968 24.9494
Au 23.681 23.8109 9.29611
Au 11.6853 24.5966 23.1753
Au 13.9982 12.7432 12.4283
Au 23.2554 10.5681 25.4527
Au 28.2282 32.806 14.2416
Pd 29.5108 21.3683 25.2971
Au 22.987 24.5709 14.745
Au 19.1867 24.7575 8.21622
Au 20.6436 27.4193 19.8927
Pd 11.8955 14.1241 19.5829
Au 30.8054 12.7706 19.1565
Au 27.3521 12.0845 26.8063
Au 25.0057 32.4412 27.0541
Au 19.0216 12.4573 30.6552
Au 30.4203 22.9813 11.0906
Au 20.4971 10.5753 29.4097
Au 25.1774 14.6844 10.7029
Au 17.5504 6.8935 17.036
Pd 32.778 11.1129 19.0576
Pd 19.8326 19.0369 32.3471
Au 20.8863 27.0113 14.6432
Pd 8.88868 10.4187 19.9693
Au 19.264 18.5996 21.1379
Au 19.9013 17.0313 30.5511
Pd 19.87 23.9479 31.1327
Au 13.7446 13.3817 17.475
Au 20.5208 26.047 32.8373
Au 15.159 19.2344 9.35727
Pd 26.2194 31.0621 15.7072
Au 22.1356 30.2491 29.8554
Au 19.7941 24.4152 25.7356
Au 14.617 25.8836 20.1085
Au 33.7979 21.529 23.3589
Au 13.326 28.22 20.8503
Au 18.0006 27.0319 31.3129
Au 25.264 33.0282 24.4457
Au 18.8866 22.3672 9.72428
Au 13.905 31.8008 23.1712
Au 13.4686 5.39082 19.4109
Au 26.3035 28.8106 22.275
Au 13.2284 21.3929 10.3551
Au 11.815 11.8206 16.5497
Au 9.47905 26.0157 21.9126
Au 26.6291 14.1106 19.9223
Pd 11.0854 22.2018 24.2006
Au 21.5989 6.65233 14.612
Au 18.9242 34.5963 20.0623
Au 28.5385 10.93 19.0203
Au 25.9655 10.2001 25.5926
Pd 22.2211 11.9265 19.2601
Au 9.79778 12.4887 18.3251
Au 18.3292 10.6057 22.9754
Pd 18.3133 26.8029 25.8631
Au 30.7372 10.3541 20.6657
Au 18.636 32.9957 13.4152
Pd 22.4939 23.565 31.6091
Au 21.7565 25.6599 10.1058
Au 8.09118 16.803 27.0641
Au 10.4217 16.315 18.942
Pd 20.6256 21.1457 23.481
Au 17.1173 30.4149 19.5106
Pd 12.3936 18.4323 18.9971
Au 24.574 22.1648 15.438
Pd 15.3558 19.4629 14.2558
Au 9.67045 18.4105 14.0031
Au 22.4866 31.9293 27.8055
Au 18.4353 28.2064 13.931
Pd 27.4716 12.8931 17.648
Pd 29.8291 19.5101 13.5188
Pd 22.548 15.7788 18.7411
Pd 22.202 13.2316 25.3853
Au 7.65901 18.2272 12.1541
Au 17.4588 16.7602 19.9219
Pd 27.7229 29.6585 19.9688
Pd 7.09518 19.3119 18.6353
Au 18.195 12.978 16.6756
Au 18.8142 4.82097 18.8313
Au 13.5515 22.1863 32.2218
Au 15.2874 33.7538 16.822
Au 18.3358 21.1659 21.6697
Au 18.4108 16.076 17.2221
Pd 24.9797 20.5949 26.8491
Au 29.3026 30.3811 22.0714
Au 18.2014 19.8898 8.87599
Au 14.0946 11.8053 9.76726
Au 22.3493 12.0204 27.9048
Au 24.2369 19.8599 17.5035
Au 14.5101 7.91783 12.8066
Au 23.386 31.363 15.2834
Pd 18.3968 26.2962 16.0805
Pd 24.8638 20.387 13.0414
Au 24.7934 23.771 30.1278
Au 25.0096 12.055 18.6797
Au 10.3587 28.2953 17.6018
Au 11.6 21.3956 8.23728
Au 23.5175 35.3275 21.0049
Au 21.1579 11.6366 10.1213
Au 8.74169 20.6214 12.1674
Au 26.5092 16.6357 26.4793
Au 17.7173 10.4605 28.9335
Au 26.6818 30.7284 25.8842
Pd 22.2406 24.7848 29.1037
Au 17.1006 8.54401 26.8811
Au 20.0221 29.8225 9.75051
Au 26.7515 6.66865 19.4283
Au 27.4744 17.9778 8.20318
Au 18.5684 10.3561 12.1154
Au 25.7893 22.5398 11.573
Au 16.6747 23.7741 7.85184
Au 16.2343 21.0552 7.22388
Au 21.9482 31.0525 10.9919
Au 32.7742 27.3503 19.3674
Au 16.9772 31.4859 11.9537
Pd 14.4794 8.44439 26.3774
Au 25.5406 26.4861 30.4737
Au 21.8952 4.60818 19.5539
Au 18.5031 10.1715 17.3636
Au 17.1098 26.4944 8.67408
Au 15.91 32.6927 14.3752
Au 21.6841 22.1452 15.5123
Au 32.1581 14.2232 15.3274
Au 13.8878 24.9167 17.5357
Au 23.3427 6.81835 19.1128
Au 22.2253 16.5599 21.4238
Pd 23.8069 18.2566 11.7439
Au 24.5749 12.2284 23.7585
Au 29.0652 8.24214 19.9667
Pd 17.2525 24.4398 24.862
Au 19.2989 10.7279 14.7617
Pd 21.0865 11.7944 12.9237
Au 26.4234 14.279 28.0159
Au 11.01 23.7446 15.1249
Pd 27.2489 33.9831 16.5251
Au 10.629 10.6606 27.9346
Au 20.7142 26.6159 27.302
Au 28.167 9.26586 24.2798
Au 31.6927 16.4712 13.5238
Au 21.136 22.3415 29.2148
Au 17.6491 30.7038 14.5828
Au 8.17244 19.2704 21.1746
Pd 14.5658 27.1924 16.3861
Au 16.0016 14.8776 17.1671
Au 15.1189 13.5009 14.9701
Au 25.5888 33.388 14.3082
Au 12.0174 23.9089 9.19773
Au 32.2702 18.0812 18.1989
Au 24.6956 16.2686 28.7751
Au 18.1104 23.2143 14.899
Au 27.1257 28.9275 12.129
Au 11.5621 17.513 11.8406
Pd 25.0608 16.096 21.1857
Au 20.0132 13.6422 14.7035
Pd 20.0319 29.9691 19.5026
Au 12.1328 30.1013 24.546
Au 16.1229 26.8731 14.2112
Au 20.8209 33.0371 23.8139
Au 28.3504 16.7792 24.3816
Au 18.321 10.9782 9.5988
Pd 21.5218 29.2362 27.3208
Pd 16.2216 17.2162 25.1758
Au 17.2495 5.38661 21.0843
Pd 15.2645 15.4056 29.5577
Au 16.6218 25.0015 27.3705
Pd 12.8337 8.19806 19.3402
Au 10.3366 16.3234 28.7112
Au 33.175 20.8403 18.4842
Au 27.0659 21.944 13.9341
Au 16.409 19.2681 20.1723
Au 20.4041 20.8202 19.7287
Pd 15.7043 21.6597 30.4037
Au 24.3208 16.9899 31.4512
Pd 28.9655 10.9489 16.2181
Au 9.30546 12.6984 24.0206
Pd 30.4653 23.7577 24.7956
Pd 32.4726 23.9887 22.8775
Au 9.59917 10.3009 22.6489
Au 15.5082 26.5835 25.0696
Au 16.537 12.3027 11.2024
Pd 21.9604 17.4516 28.6125
Au 24.8618 35.5302 15.7686
Pd 23.294 21.2166 30.4192
Pd 10.455 22.0743 10.5699
Au 33.0971 16.7551 15.8203
Au 27.8404 21.2031 27.4533
Au 21.3598 9.43642 11.6897
Au 20.0852 17.9981 34.7177
Pd 11.6028 12.1676 11.0935
Au 29.23 17.4313 27.1563
Au 20.168 22.1965 13.2894
Au 11.9279 12.2178 23.4753
Au 11.0794 16.419 9.3641
Au 23.1555 34.2434 26.1994
Au 28.9334 19.7906 23.0294
Pd 33.5394 17.3483 20.6695
Pd 11.9855 6.17885 17.3012
Pd 24.2657 12.4125 9.26081
Pd 17.8572 14.8889 30.5923
Au 32.5616 15.9564 22.7798
Au 22.4474 5.31099 17.0046
Au 30.5083 20.1416 17.9459
Au 19.1465 23.5744 22.9036
Pd 10.2228 21.1704 14.4863
Pd 14.2367 31.3444 25.8135
Pd 16.0697 24.7791 15.9111
Au 19.9253 8.1298 16.1877
Pd 16.8184 8.33967 22.2171
Au 15.9093 22.02 25.6357
Au 32.8232 23.0925 16.5661
Au 10.6227 12.2368 21.0548
Au 31.2063 22.4227 27.281
Au 20.5728 17.8612 6.23243
Au 21.2401 32.169 13.5165
Au 29.9866 28.3621 18.7487
Au 21.5763 16.8034 32.8296
Pd 16.2837 27.9635 27.2543
Pd 23.0742 13.5307 17.3096
Au 17.1831 13.5099 26.2522
Pd 25.5409 33.6696 21.7899
Au 13.3735 17.2725 25.8228
Au 28.7532 31.6097 16.6616
Au 13.1685 23.3117 19.6011
Au 6.25128 14.593 20.888
Au 24.4885 14.7529 8.02575
Au 20.9847 15.0967 23.7825
Au 10.4827 20.3826 26.0399
Au 15.9781 29.0038 12.4386
Au 20.1452 19.7482 29.681
Au 8.86164 23.7821 23.3181
Au 27.0089 26.0697 26.8241
Au 10.302 8.333 20.8963
Pd 23.6006 14.7312 23.209
Au 14.1503 13.5002 31.1635
Pd 20.5901 17.6542 16.8672
Pd 15.9747 9.75654 10.67
Au 15.9796 23.2727 32.5455
Au 20.4027 34.7339 14.7205
Pd 20.3383 29.8968 14.9575
Pd 29.8746 31.0312 19.2906
Pd 11.22 15.9947 14.0359
Au 27.1884 26.4623 23.5397
Au 15.0226 15.245 26.8005
Au 9.74213 18.9633 18.7998
Au 10.299 8.45497 18.0755
Au 26.364 34.2025 19.2086
Au 9.48135 26.2344 19.2199
Au 22.2785 20.078 27.8124
Au 22.6177 8.1544 16.7907
Pd 15.0037 11.2553 29.8812
Au 19.9064 25.5569 18.2236
Au 20.0551 35.2665 22.5177
Au 25.9633 11.9187 11.3301
Pd 12.4553 8.84655 16.569
Au 21.8618 15.4417 15.772
Au 31.6795 19.436 20.6158
Pd 22.579 16.5964 7.71332
Au 29.096 14.8589 19.0829
Pd 14.1308 23.9233 22.0323
Au 16.4038 12.6652 8.53108
Pd 19.2392 13.0891 11.4308
Au 21.4745 22.9651 10.8955
Au 17.9738 18.4119 15.8326
Au 27.305 24.7792 29.2853
Au 22.8486 20.0321 24.8721
Pd 26.1018 23.3384 27.188
Au 29.262 26.4045 28.2128
Au 11.5975 23.1535 30.7028
Pd 21.4902 26.3717 24.5273
Pd 19.8699 28.8136 29.4869
Au 13.9037 23.9732 11.0945
Pd 24.7805 30.2588 23.9869
Au 7.73234 13.8076 11.3636
Au 24.2149 13.4653 29.2973
Pd 20.2663 14.6551 31.8846
Au 5.506 19.4234 21.1325
Au 18.1257 7.46013 19.6093
Au 29.1034 16.7462 12.7278
Au 7.06534 21.884 17.1875
Au 26.9346 15.4856 7.52673
Au 18.4276 19.4093 23.7642
Au 25.3192 8.01469 17.5288
Au 16.2919 12.0368 18.4713
Au 28.5876 18.4995 10.6744
Au 28.6299 25.1402 14.6398
Au 12.5244 26.581 25.256
Au 16.5504 30.0207 25.1961
Au 16.6247 19.8633 11.5858
Pd 15.7105 11.0823 27.138
Au 19.286 13.2165 8.6253
Au 23.8122 33.1284 19.5754
Au 24.7752 4.91282 20.2667
Au 31.703 11.6184 16.6209
Au 14.2695 23.284 27.8057
Au 15.9922 31.1007 16.8815
Pd 26.4168 9.41048 19.6892
Au 27.2263 19.1115 13.0947
Au 31.6774 25.2643 17.863
Au 12.577 26.4751 10.3215
Au 24.4204 18.7205 21.9259
Au 14.7149 14.7243 7.65031
Au 14.0939 22.6528 8.01334
Au 18.0598 14.0964 33.1675
Au 10.602 13.3655 28.5805
Pd 20.6384 6.87777 18.6069
Au 16.2945 32.9026 20.1704
Pd 17.772 20.6554 14.0931
Pd 17.9238 10.0936 20.1792
Au 15.8324 6.30393 14.7633
Au 8.11152 14.7682 22.8481
Pd 18.0921 10.9141 25.9612
Au 5.03535 17.0542 19.9246
Pd 15.038 9.88964 20.4823
Au 13.6584 16.8187 31.3761
Au 16.7354 13.0949 28.8942
Au 18.0055 23.7939 17.5654
Pd 16.5066 30.879 22.346
Pd 20.5842 22.8863 17.8978
Pd 27.5419 27.0301 19.1929
Pd 19.5683 27.2213 9.4451
Au 10.8112 6.11316 19.6433
Au 15.3852 8.92133 28.8377
Au 16.5141 35.6235 20.7906
Au 5.5747 15.0441 23.477
Au 30.458 23.6694 21.122
Au 11.0966 27.664 12.3231
Au 19.7707 16.5895 14.5319
Au 11.0428 19.179 21.3597
Au 16.5667 12.6091 31.6198
Au 21.0804 35.4569 24.9759
Pd 21.8525 12.6482 22.7314
Pd 15.8271 26.5098 29.5117
Au 17.6138 12.5494 13.7157
Au 10.8425 14.5887 22.4529
Pd 27.0273 18.0802 22.1515
Au 26.7619 31.6514 18.4136
Au 25.965 7.56303 24.4737
Au 17.6803 34.3303 15.6196
Au 22.7926 27.5847 29.0546
Au 11.1408 17.3291 16.4842
Au 27.2911 27.657 14.6491
Pd 20.3743 24.4952 15.6311
Au 21.4545 28.3707 31.6491
Au 22.6744 24.808 33.9235
Au 12.5459 18.4268 14.2765
Au 13.3663 26.7247 30.4362
Pd 14.8911 18.9499 30.1192
Au 16.2877 20.146 17.0061
Pd 18.2758 21.9111 32.9319
Au 12.2282 21.8198 21.7263
Pd 8.78241 11.424 12.3191
Au 7.67561 23.801 20.8341
Au 17.9935 14.2265 19.3751
Au 14.9619 20.5318 27.8426
Au 22.2806 29.1855 24.5799
Pd 9.59613 23.722 28.8843
Au 11.3855 27.8136 23.056
Au 23.0496 22.3601 13.1169
Au 30.4561 26.2108 20.2359
Au 20.0528 15.5061 10.0342
Au 29.8859 15.9295 15.4369
Au 13.6142 11.0655 14.6768
Au 25.0209 24.8499 32.6488
Au 5.78283 19.825 16.2468
Pd 18.5637 15.5771 12.3679
Au 21.8673 9.62681 14.5671
Au 23.5237 10.8516 16.5543
Pd 20.327 28.1033 17.1116
Au 27.9025 15.8803 9.96487
Au 23.6774 10.3455 10.849
Au 13.9146 32.0144 18.3355
Pd 15.9327 18.4035 6.86594
Pd 26.81 26.0573 16.7476
Au 16.3598 25.5401 22.5038
Au 20.3637 32.6169 18.8071
Au 21.0079 25.2744 21.6609
Au 15.4732 22.7465 17.948
Au 15.7185 18.0071 32.7199
Au 21.1781 22.9745 8.20154
Au 29.9046 13.4997 16.64
Au 12.3016 11.8608 29.9278
Au 26.0182 23.6266 22.8119
Au 18.3301 17.3584 7.64758
Au 23.624 24.7751 22.5254
Pd 26.6123 18.7897 27.9961
Au 13.8545 16.1579 13.0768
Au 8.37913 17.2398 16.9223
Pd 25.4194 19.1259 24.4974
Au 29.4381 26.587 25.4909
Au 21.6207 8.10929 25.7465
Pd 25.1994 17.0874 9.35433
Au 17.8021 19.3257 34.1594
Au 13.6409 12.1367 20.0984
Pd 17.456 14.7407 10.08
Au 11.828 12.5057 26.2886
Au 32.6848 18.9442 13.7722
Au 24.2446 6.39219 15.2826
Pd 22.3359 26.1607 16.9362
Pd 18.319 26.7305 28.601
Au 22.6451 22.0288 33.917
Au 12.7079 29.235 16.4076
Au 11.3861 8.41388 23.6334
Au 28.1993 18.0631 15.3856
Pd 19.2684 20.1147 11.6722
Au 27.5891 16.4641 29.0273
Au 27.2119 20.7205 31.6509
Au 18.7261 30.3324 17.194
Au 27.9236 32.443 20.7819
Pd 24.6124 26.4429 18.5184
Au 32.4232 26.6578 22.0531
Au 19.2197 17.8824 27.9661
Pd 12.1224 14.7691 11.5925
Pd 20.4451 31.0037 25.7101
Pd 23.0027 27.0129 12.7348
Au 23.2331 21.3178 7.89876
Au 28.936 23.8016 27.307
Au 16.2573 11.1389 15.8919
Au 10.1286 25.8958 27.2674
Pd 20.5628 17.811 23.4796
Pd 20.9741 30.6478 22.4912
Au 13.5325 17.2487 7.68918
Au 26.4672 31.2928 12.8797
Au 21.8038 18.4729 19.3012
Au 9.22886 23.1575 12.8946
Au 30.6357 9.64992 18.0436
Pd 23.1315 22.3375 17.9783
Au 14.8846 16.9631 20.6048
Pd 24.094 15.4031 25.8363
Au 6.69891 12.7154 16.4836
Au 23.8999 24.5965 11.8811
Au 30.6459 31.7625 14.7007
Au 25.7138 26.2198 21.1962
Au 13.3203 28.9515 11.5267
Au 25.4311 13.5904 13.3659
Au 20.2623 27.5649 11.9894
Pd 26.3932 10.4458 16.9155
Au 9.2776 16.1143 11.7155
Au 10.2626 20.9582 29.99
Pd 28.8772 20.8253 15.7513
Pd 8.30248 21.4952 24.6435
Au 21.9508 8.33362 20.9966
Pd 4.53207 19.4797 18.6476
Au 9.48586 16.8879 21.5916
Au 10.5643 24.8345 11.2521
Au 18.7157 29.023 21.6255
Au 24.9475 9.04641 15.0033
Au 14.3811 4.69954 16.5492
Au 7.43377 21.1113 14.4361
Pd 15.0007 29.6127 14.859
Au 5.95669 21.6445 19.64
Au 28.0289 28.577 27.0065
Au 28.2373 10.0811 21.7434
Au 32.2997 12.339 21.5269
Au 13.0684 21.0211 29.8214
Au 15.6122 25.8571 32.1243
Au 19.743 8.22539 13.354
Au 22.6949 16.1854 10.3798
Pd 21.4395 33.4013 21.1832
Au 13.4031 10.1635 11.8313
Au 14.9317 34.0312 22.2005
Au 19.9021 31.333 28.4269
Au 8.68821 21.4394 27.7218
Au 10.57 28.1717 14.9097
Au 9.75809 25.7492 13.7677
Pd 30.9381 18.4249 15.7522
Au 13.2199 10.4004 27.8236
Au 29.6447 12.4624 25.5611
Au 14.2506 8.61683 22.884
Au 25.3823 12.8235 15.9544
Au 30.3314 17.4382 22.6014
Au 13.9257 13.1792 28.2521
Au 13.1504 6.58045 14.9159
Au 9.65567 18.9517 28.3473
Au 27.035 16.947 19.3532
Au 32.2604 23.2447 13.8769
Au 20.1645 20.7594 34.5148
Pd 24.4871 23.2176 20.4106
Pd 18.546 25.4312 13.4902
Au 13.323 17.0894 28.6461
Au 23.5757 20.6404 20.0345
Au 18.815 17.1344 25.4322
Pd 28.2582 15.804 21.5738
Au 24.6113 15.418 15.5162
Au 31.5508 25.4907 15.1806
Au 18.9382 31.9259 21.084
Pd 28.565 22.0534 18.2432
Pd 21.4042 22.1173 26.1621
Au 15.2957 7.22714 20.2165
Au 15.1125 27.9171 9.70326
Au 21.0852 10.0079 23.6265
Pd 18.5033 21.9077 30.2482
Pd 16.9432 22.4964 28.0961
Au 15.8874 24.307 13.2216
Au 17.3664 19.5974 26.2243
Au 15.4012 28.357 31.3659
Au 24.3915 17.795 19.2632
Au 5.63129 17.3721 17.2941
Pd 19.3363 12.4807 27.8686
Au 10.0034 14.8365 25.7486
Pd 10.404 10.4526 25.2066
Au 28.6593 12.7399 21.2038
Au 26.5593 18.2627 30.7057
Pd 18.1821 28.0553 18.8057
Au 25.84 9.34944 12.282
Au 11.6013 10.5954 19.0172
Au 9.97962 14.0109 10.0638
Au 24.8943 22.1805 32.4577
Pd 13.694 23.9661 14.8439
Au 30.6104 18.6487 25.0362
Pd 17.4729 8.74068 15.0048
Au 22.4053 24.6726 19.2465
Pd 32.0918 27.6417 16.7714
Pd 24.6323 12.8075 26.53
Pd 28.9347 14.203 23.7173
Au 25.7438 26.6752 12.449
Au 26.1806 20.0123 15.6136
Au 25.709 16.4586 23.8316
Pd 25.0014 17.8818 14.2885
Au 17.099 17.3692 30.2379
Au 17.1927 29.111 29.5866
Pd 12.2454 15.1175 27.2115
Pd 23.1031 19.8693 15.0127
Au 8.77827 15.5133 14.7911
Au 14.8722 28.9403 18.4183
Pd 6.70446 17.0853 22.1552
Au 12.3542 13.6154 14.4322
Au 20.3533 23.4612 33.784
Au 14.4582 12.7169 25.395
Au 28.6503 22.3005 29.7103
Pd 28.7497 27.7479 21.6196
Au 29.9056 33.9771 16.0135
Pd 21.0706 20.536 9.8027
Au 11.9805 24.1433 26.1133
Au 24.1491 28.7566 30.9743
Au 12.2674 30.1623 27.3072
Pd 12.0608 26.1888 15.8298
Au 18.3238 16.772 32.8435
Au 18.9666 21.1189 16.5436
Au 16.1717 7.19092 24.675
Au 12.0166 27.6268 28.1277
Au 28.6332 19.5365 29.5566
Au 13.1102 21.5589 25.9555
Au 23.1618 26.8671 20.7811
Pd 17.5363 29.253 10.2089
Au 19.2656 21.303 27.5757
Au 15.593 20.7028 33.1942
Au 30.8179 15.8846 24.9813
Au 23.8852 31.8023 12.6741
Au 20.4223 26.3237 30.1686
Pd 22.4117 15.5414 30.4351
Au 8.67203 16.9042 24.3477
Pd 20.4314 14.2501 17.7243
Pd 16.6649 14.8037 21.7921
Pd 23.5068 6.24984 24.5639
Pd 16.1282 28.0996 20.8284
Au 26.8592 13.4193 9.18922
Pd 21.8957 20.024 12.4244
Au 24.9901 29.2415 14.0473
Au 8.07028 8.20898 16.1424
Pd 24.2461 26.7336 10.2077
Au 16.5964 23.9253 20.2317
Au 19.6471 34.9876 17.3352
Au 14.8716 21.7894 12.5925
Au 7.14009 12.5675 19.1559
Au 19.8684 14.6546 26.3171
Au 12.9976 32.7946 20.7594
Au 21.2203 14.9119 12.5768
Pd 16.7807 12.6171 23.7807
Pd 25.2386 28.7026 19.7115
Au 30.4067 20.4816 10.0867
Au 25.1176 5.2589 17.6472
Au 20.8543 9.57296 18.6473
Au 28.2487 29.032 24.2718
Au 16.0204 21.9094 9.85334
Au 11.9609 30.3762 21.812
Pd 15.9753 17.5301 17.8653
Au 25.5544 28.1881 28.271
Pd 18.1263 14.969 24.105
Au 10.6532 28.3443 25.904
Au 18.3283 6.26874 23.3163
Au 16.1817 32.7454 24.5004
Au 22.378 30.9654 20.0308
Au 23.0055 34.0577 14.4688
Au 16.5192 22.7051 22.9589
Au 24.5715 24.3606 16.9447
Au 13.6759 20.0017 7.27672
Pd 31.6185 13.5743 23.9419
Au 15.0649 5.9532 22.5862
Au 27.0523 31.4362 23.1468
Au 25.3125 28.5659 16.905
Pd 11.0792 11.3346 13.6661
Pd 14.7647 19.4828 25.2958
Au 15.3238 14.9869 24.0649
Pd 13.3913 27.6963 13.9748
Au 14.5684 7.1131 17.4542
Au 31.3245 29.0082 20.9765
Au 17.6704 33.8513 22.4737
Pd 8.62609 21.5082 19.4906
Au 11.779 8.4934 26.4051
Pd 27.4551 11.8616 23.8677
Au 21.7286 23.5808 23.889
Au 15.9844 17.1038 11.706
Au 18.5674 21.9363 25.0581
Au 20.0514 14.8141 29.048
Au 23.4651 8.09183 12.9254
Au 15.8313 15.3366 32.2973
Pd 8.69529 19.7955 16.3479
Pd 29.4746 26.7302 16.6951
Pd 14.3495 31.213 12.7865
Au 16.9392 28.4852 16.4223
Pd 13.6346 16.7632 10.2761
Au 8.29103 23.6057 15.3891
Au 11.9445 25.7894 20.7117
Au 32.8855 24.688 20.1901
Pd 21.5603 30.6918 17.272
Au 24.7651 7.81239 21.1859
Pd 16.0782 14.6073 12.6901
Au 14.4868 34.5875 19.3252
Au 24.6639 19.5632 32.1523
Pd 21.182 27.9551 22.4142
Au 14.3499 24.1301 30.3728
Au 12.3513 19.5811 23.9418
Pd 31.5045 15.4347 17.736
Au 19.4417 8.38049 21.8317
Pd 24.2273 30.7633 18.0185
Au 22.2535 18.6944 31.0255
Au 8.3574 14.6182 17.5012
Au 12.2164 19.0097 9.42956
Pd 31.1927 22.7133 18.7157
Au 32.2057 29.8448 18.4341
Au 26.9253 6.51798 16.058
Au 24.6645 30.6223 29.0916
Au 21.5905 35.2118 19.1498
Au 32.6689 18.9442 23.1113
Au 16.0149 16.6755 8.92054
Pd 25.7117 22.071 8.93585
Au 19.447 30.3147 12.295
Au 13.4389 16.0845 18.3867
Au 21.7999 22.6311 21.1679
Au 18.0385 18.1157 13.1555
Au 19.7408 32.4584 15.9014
Pd 13.7131 19.4121 21.3417
Au 23.8179 13.6828 20.658
Au 19.3066 15.8845 21.8464
Au 11.1761 24.5381 17.9531
Au 17.6954 21.4758 19.0458
Pd 17.023 17.3483 22.5947
Au 10.6795 17.5826 26.2347
Pd 19.2856 24.1687 28.3793
Au 32.0837 26.0158 24.6607
Au 31.1654 21.4357 23.0299
Pd 22.8326 5.8925 21.8383
Au 12.2782 16.5786 21.0806
Au 33.6176 19.4229 16.2564
Au 13.5127 15.8053 15.7529
Au 17.1842 4.42035 16.2649
Au 14.7841 14.3726 10.3248
Au 7.93098 8.08699 18.9127
Pd 9.37185 12.7496 15.5175
Au 30.7056 28.1889 23.5228
Pd 9.00609 12.3752 26.6123
Pd 14.1071 21.6253 23.5153
Pd 26.985 15.8701 14.1973
Pd 18.0948 24.8092 32.8716
Au 17.5055 26.9413 11.4504
Pd 24.0579 27.3143 23.4702
Au 12.4771 14.0609 8.9954
Au 19.2501 24.8313 10.9051
Au 21.6796 12.9336 30.2988
Au 31.1779 18.3444 11.5785
Au 9.9441 13.7291 12.9345
Au 26.2832 16.9427 11.8433
Pd 18.2563 17.6414 10.3915
Au 30.1557 11.4792 23.1501
Au 23.3887 10.7243 21.622
Pd 11.408 17.0486 23.6533
Au 17.6007 15.7174 27.8253
Pd 20.5986 18.0078 8.98848
Pd 24.0972 29.8945 26.6286
Au 25.009 25.2297 25.0492
Au 13.0581 21.0897 14.559
Au 29.6098 21.1904 20.6017
Au 22.1659 28.4079 10.3005
Au 11.4095 21.1444 19.2444
Pd 27.1572 22.3819 20.5343
Au 23.1725 17.3954 23.9547
Au 24.817 33.1618 16.9636
Au 6.81412 15.8017 12.9458
Au 14.1059 20.4225 18.6508
Au 25.9745 19.6102 10.5062
Au 29.0232 24.6923 18.4703
Au 31.3222 25.1057 27.0159
Au 27.5283 15.4389 16.8281
Au 25.3959 5.70064 22.714
Au 30.0923 27.6562 14.2349
Au 34.8012 18.6907 18.6707
Au 22.5324 24.632 26.3743
Au 6.23209 15.314 15.6045
Au 10.085 9.99057 15.8013
Au 9.25318 8.92913 13.5323
Au 12.3257 10.0372 21.6153
Au 32.7789 22.0661 20.886
Pd 23.1422 18.8498 9.21751
Au 15.1949 21.6534 20.8056
Au 27.9389 13.4007 14.8268
Pd 20.5571 33.453 26.6703
Au 32.2632 20.7434 25.4416
Pd 28.108 23.0401 9.69907
Au 18.6312 29.3203 27.0824
Au 12.089 24.9019 28.8193
Pd 23.2301 17.5645 16.6682
Pd 12.0792 8.84378 13.8445
Au 10.3234 23.6236 20.4842
Au 33.2656 13.4433 17.7569
Au 15.61 22.0832 15.2474
Au 10.7688 9.68344 11.552
Au 20.349 19.456 25.8372
Pd 26.2272 19.7441 20.0015
Au 16.0267 9.95757 24.5283
Pd 28.7384 14.8333 26.5417
Au 23.6413 21.1727 10.5871
Pd 21.4535 20.1501 17.2537
Au 25.7512 9.73224 22.9178
Au 12.2048 30.0093 19.0043
Pd 30.0812 14.2168 13.4738
Au 12.4388 25.4328 13.0423
Au 24.6335 25.5409 28.0346
Au 14.4765 11.5551 22.7485
Au 25.8333 24.4307 14.0662
Au 19.8591 5.28378 16.4383
Au 23.8368 15.7125 12.8962
Au 14.5323 30.6278 20.624
Pd 28.0401 24.9342 21.1765
Au 26.3696 20.7567 22.4787
Pd 9.43634 23.4588 26.1017
Au 28.4879 26.6883 12.2367
Pd 23.4195 32.0804 22.4169
Au 13.1693 10.2479 24.917
Au 16.2281 9.07725 18.1512
Au 26.7382 11.1505 14.1008
Au 12.8259 22.3675 16.9548
Au 23.9559 11.0649 13.4063
Au 25.4437 31.1558 20.8285
Au 18.7047 18.9086 18.4293
Au 14.5234 25.3324 8.77411
Au 22.8996 31.8781 25.0983
Pd 25.9067 17.5923 16.8932
Au 22.7842 28.6824 15.763
Au 13.9487 19.0727 11.9115
Au 23.5748 22.5909 27.9712
Au 23.3826 27.289 26.3125
Pd 24.244 8.24491 26.3551
Pd 23.3871 8.56669 23.4847
Au 12.3029 14.907 29.9892
Au 21.0231 6.92756 23.4899
Pd 15.1573 14.3659 19.6667
Au 8.30611 14.4618 28.062
Pd 9.61095 19.2876 23.6913
Au 23.6865 9.61202 19.1023
Au 17.4152 19.7418 31.5087
Au 18.3433 19.5901 6.16913
Au 25.9246 21.3094 29.4476
Au 14.4011 29.1378 23.2935
Au 27.7125 19.4827 17.8564
Au 26.1673 24.8653 10.2378
Au 10.5991 28.3177 20.4444
Au 25.0492 17.1868 6.70125
Au 19.026 26.271 23.3143
Au 19.3412 23.521 20.178
Au 25.3893 19.6208 7.80229
Au 30.6026 25.0787 12.7268
Au 23.7756 21.5609 22.7037
Au 15.1397 30.5117 10.3019
Au 28.342 21.1537 11.6074
Pd 28.1181 8.49017 17.542
Au 20.0665 5.80544 21.1185
Au 7.31991 14.5409 25.4959
Pd 29.7175 22.4673 13.6834
Au 26.3053 14.0724 22.5726
Au 18.5863 31.4526 23.8501
Au 11.1317 14.5832 16.8068
Au 9.37685 25.9853 16.4363
Pd 20.6398 17.6479 11.7974
Au 25.0624 15.1883 18.1577
Au 16.0913 5.06454 18.642
Pd 7.90105 12.3149 21.7113
Au 13.9221 18.5647 16.5652
Au 22.414 14.7619 27.767
Au 19.0122 13.1069 21.9036
Pd 17.3729 19.7847 28.8812
Pd 13.8209 26.4721 22.8619
Au 28.0048 24.0597 12.1697
Au 22.815 13.2144 14.5615
Au 6.98565 17.9877 14.7306
Au 24.755 10.6258 27.9784
Au 22.2339 17.5794 13.9954
Au 27.7735 24.2411 24.9186
Pd 14.7751 26.4612 11.8886
Pd 31.6881 21.0253 12.4109
Pd 19.6325 12.6151 24.4854
Au 14.2921 28.8706 28.9186
