923
Atoms. Timestep: 20110
Au 19.7537 19.7759 19.7652
Au 22.0571 19.7927 18.349
Au 22.0457 19.7815 21.1938
Au 17.4668 19.7623 18.331
Au 17.4559 19.7604 21.1782
Au 18.3359 22.0734 19.7595
Au 21.18 22.0684 19.7577
Au 18.3307 17.4766 19.76
Au 21.1756 17.4882 19.7658
Au 19.7523 18.3563 22.0698
Au 19.7423 21.1844 22.0673
Au 19.7487 18.3615 17.4679
Au 19.7647 21.1973 17.4711
Pd 24.3447 19.791 16.9427
Au 24.4096 19.7988 19.7616
Au 24.3296 19.7885 22.6358
Pd 15.1941 19.7543 16.9096
Au 15.1039 19.753 19.7398
Au 15.1584 19.7431 22.5991
Pd 16.9192 24.365 19.7583
Au 19.7571 24.4458 19.7589
Au 22.5956 24.3596 19.7465
Pd 16.9172 15.1907 19.7546
Au 19.7456 15.1146 19.7624
Au 22.6007 15.1911 19.7689
Au 19.7548 16.9458 24.3811
Au 19.7441 19.7606 24.4603
Au 19.7407 22.5821 24.3732
Au 19.7483 16.9562 15.164
Au 19.7639 19.7695 15.0992
Au 19.7791 22.6111 15.1748
Au 22.0852 18.3408 23.57
Au 22.0778 21.1984 23.5665
Au 22.0946 18.3518 15.9988
Au 22.1114 21.232 16.0057
Au 17.4169 18.3157 23.5487
Au 17.4085 21.1915 23.5519
Pd 17.4368 18.319 15.9932
Au 17.4372 21.1931 15.9905
Pd 23.5261 22.1122 18.3223
Au 23.5289 22.111 21.2061
Au 15.9956 22.0996 18.3078
Au 15.9853 22.1055 21.2004
Au 23.5401 17.4688 18.3163
Au 23.5314 17.452 21.2272
Au 16.0026 17.4307 18.2939
Au 15.981 17.4065 21.2058
Au 18.3013 23.553 22.0916
Au 21.1896 23.5389 22.0912
Au 18.2981 16.0037 22.0944
Au 21.2004 16.0028 22.1141
Au 18.3273 23.5602 17.4284
Au 21.2237 23.5541 17.4358
Au 18.3075 16.0112 17.4197
Au 21.2024 16.0097 17.4258
Au 26.6439 19.7758 15.5376
Au 26.745 19.7777 18.3391
Au 26.7368 19.7847 21.2138
Au 26.6125 19.7786 24.0559
Au 12.8955 19.7495 15.4788
Au 12.7748 19.7501 18.3109
Au 12.7606 19.7367 21.1874
Pd 12.8606 19.7355 24.0126
Au 15.4863 26.6634 19.7738
Au 18.337 26.7731 19.7634
Pd 21.1882 26.7659 19.755
Au 24.0077 26.648 19.7439
Au 15.5076 12.8899 19.7507
Au 18.3265 12.774 19.755
Au 21.1875 12.7685 19.7524
Au 24.0293 12.8881 19.7675
Pd 19.7508 15.537 26.6728
Pd 19.7409 18.3371 26.771
Pd 19.74 21.1625 26.7717
Au 19.7503 23.9961 26.6689
Pd 19.778 15.5418 12.8852
Pd 19.7829 18.3395 12.7815
Pd 19.7907 21.1934 12.782
Au 19.7956 24.0235 12.8666
Pd 24.3843 18.3305 25.0102
Au 22.0855 16.9068 25.8948
Pd 24.3748 21.2078 25.0158
Pd 22.0875 19.7614 25.9605
Au 22.0926 22.6083 25.8959
Au 24.4093 18.3286 14.5654
Au 22.1043 16.9124 13.666
Au 24.4067 21.2378 14.559
Au 22.1065 19.7808 13.5756
Au 22.1244 22.6431 13.6538
Au 15.0951 18.2928 24.9792
Au 17.4179 16.8918 25.8795
Au 15.0762 21.1916 24.9902
Pd 17.3933 19.7453 25.953
Au 17.3881 22.6154 25.8808
Au 15.1568 18.2898 14.5428
Pd 17.4386 16.8983 13.6773
Au 15.1291 21.2065 14.5369
Au 17.4399 19.7329 13.5946
Au 17.4467 22.6414 13.6617
Au 24.9662 24.4283 18.3046
Au 25.8386 22.1357 16.9028
Pd 24.9583 24.422 21.2119
Au 25.919 22.1566 19.7752
Pd 25.8334 22.1185 22.6601
Au 14.5395 24.429 18.3027
Au 13.6737 22.1071 16.8571
Au 14.5326 24.4296 21.2143
Au 13.5752 22.1268 19.7535
Au 13.6526 22.0982 22.6553
Au 24.9875 15.1356 18.3035
Pd 25.8576 17.4426 16.8909
Au 24.9895 15.1262 21.2603
Au 25.9377 17.4208 19.7705
Au 25.8481 17.4204 22.691
Au 14.5629 15.1099 18.2914
Au 13.6899 17.4072 16.8591
Pd 14.5421 15.1053 21.212
Au 13.5885 17.373 19.7601
Au 13.6561 17.3853 22.6548
Au 18.2857 24.9926 24.4243
Au 16.8627 25.8842 22.1085
Au 21.187 24.9835 24.4188
Au 19.7543 25.9782 22.1248
Au 22.611 25.8742 22.0889
Au 18.2996 14.5694 24.428
Au 16.8619 13.6925 22.1039
Au 21.2121 14.553 24.451
Au 19.7559 13.5865 22.1361
Au 22.6518 13.6731 22.1495
Pd 18.3375 24.9954 15.0992
Au 16.8969 25.8793 17.4091
Au 21.2317 24.9938 15.1196
Au 19.7888 25.9699 17.4005
Pd 22.6355 25.8784 17.4226
Au 18.3238 14.5756 15.0847
Au 16.8863 13.6883 17.3955
Au 21.2316 14.5674 15.0949
Au 19.7691 13.589 17.3878
Au 22.6438 13.6685 17.3952
Au 23.5897 15.9575 23.6309
Au 23.5746 23.5649 23.5946
Au 23.5944 15.9538 15.941
Pd 23.5807 23.6022 15.9585
Pd 15.9221 15.9493 23.5889
Au 15.9126 23.5866 23.6082
Pd 15.9653 15.9494 15.9264
Au 15.9527 23.5992 15.923
Au 28.9549 19.7558 14.1147
Pd 29.0894 19.7612 16.9273
Au 29.1212 19.7556 19.7739
Au 29.0845 19.7555 22.6296
Au 28.9405 19.7546 25.4602
Pd 10.5929 19.745 14.0406
Au 10.4348 19.7441 16.8755
Au 10.3917 19.7288 19.7497
Au 10.4279 19.7266 22.6134
Au 10.5611 19.7325 25.406
Au 14.0514 28.9659 19.777
Au 16.8946 29.1102 19.7816
Au 19.775 29.132 19.7674
Au 22.6045 29.0846 19.7647
Au 25.4364 28.9484 19.76
Au 14.102 10.5541 19.7389
Au 16.928 10.4126 19.7382
Au 19.7713 10.3894 19.732
Au 22.6213 10.4297 19.7402
Au 25.4656 10.5879 19.7492
Au 19.7315 14.1127 28.9531
Pd 19.7377 16.9089 29.0763
Au 19.7373 19.74 29.1188
Au 19.7554 22.5904 29.0944
Au 19.755 25.4226 28.9704
Au 19.8042 14.1302 10.5985
Pd 19.8037 16.921 10.4797
Au 19.817 19.7523 10.4549
Au 19.8237 22.6116 10.4611
Pd 19.7887 25.4356 10.5606
Au 26.6941 18.2844 26.4386
Au 24.4249 16.8539 27.3363
Pd 22.0895 15.462 28.1936
Au 26.6748 21.2232 26.4616
Au 24.4194 19.7705 27.4318
Au 22.1006 18.3219 28.3084
Pd 24.399 22.649 27.3577
Au 22.1202 21.2014 28.3091
Pd 22.1044 24.0559 28.2018
Au 26.7198 18.2933 13.1234
Pd 24.4327 16.8735 12.2212
Au 22.1366 15.4912 11.3726
Au 26.7247 21.2312 13.1105
Au 24.444 19.7687 12.1139
Pd 22.1514 18.3269 11.2403
Pd 24.4416 22.6639 12.1892
Pd 22.1534 21.2128 11.231
Pd 22.1387 24.0691 11.3456
Au 12.7724 18.2921 26.3942
Au 15.0735 16.8531 27.3261
Pd 17.4037 15.4644 28.1818
Pd 12.7589 21.1856 26.4028
Au 15.0305 19.7542 27.4159
Au 17.3799 18.3044 28.3089
Au 15.0325 22.6452 27.3215
Au 17.3548 21.1754 28.3159
Au 17.3715 24.0638 28.1979
Au 12.8268 18.2906 13.0848
Pd 15.1261 16.8633 12.189
Au 17.4593 15.4761 11.3711
Au 12.8085 21.206 13.0765
Au 15.0962 19.7374 12.0989
Au 17.4354 18.3031 11.2368
Au 15.1009 22.6552 12.176
Au 17.4309 21.1798 11.2238
Au 17.441 24.0719 11.3215
Pd 26.4189 26.7401 18.306
Pd 27.3286 24.4705 16.8841
Au 28.1927 22.1346 15.4843
Au 26.4068 26.7354 21.2213
Au 27.4038 24.4858 19.7634
Au 28.3089 22.152 18.3318
Au 27.3067 24.4454 22.6663
Au 28.2987 22.1645 21.2198
Au 28.1624 22.1316 24.0944
Au 13.063 26.7493 18.3019
Au 12.176 24.4459 16.8258
Au 11.343 22.1044 15.413
Pd 13.0755 26.7347 21.2249
Au 12.0672 24.4819 19.7612
Au 11.1927 22.1366 18.2988
Au 12.1796 24.4346 22.6749
Au 11.1844 22.1253 21.2012
Au 11.3338 22.0873 24.0788
Au 26.4389 12.8084 18.3009
Au 27.34 15.0943 16.8709
Au 28.1842 17.4162 15.4712
Au 26.4411 12.8226 21.2551
Au 27.4306 15.0688 19.7941
Au 28.3123 17.3976 18.3359
Pd 27.3312 15.0889 22.6936
Au 28.3015 17.3672 21.2321
Au 28.1717 17.3831 24.088
Au 13.111 12.7774 18.2651
Au 12.2068 15.0601 16.8295
Au 11.3465 17.3943 15.4172
Au 13.1034 12.7814 21.215
Au 12.0973 15.0307 19.7536
Au 11.1997 17.3618 18.3117
Au 12.1819 15.072 22.6566
Au 11.1943 17.3509 21.2032
Pd 11.3291 17.3964 24.0601
Au 18.2814 26.4329 26.736
Au 16.8416 27.3502 24.4512
Pd 15.4178 28.2008 22.1326
Au 21.2006 26.4249 26.7412
Pd 19.7378 27.4434 24.4735
Au 18.3117 28.3354 22.1633
Au 22.6113 27.3479 24.4332
Pd 21.1835 28.3359 22.1384
Au 24.0418 28.193 22.1138
Au 18.2871 13.136 26.741
Au 16.869 12.1945 24.4444
Au 15.4576 11.3342 22.1166
Au 21.2058 13.1186 26.7586
Au 19.7689 12.0915 24.486
Au 18.3269 11.1946 22.1439
Pd 22.6652 12.1916 24.4726
Au 21.2163 11.2027 22.1524
Au 24.0909 11.3549 22.1486
Au 18.3346 26.4269 12.7732
Au 16.887 27.3437 15.0544
Au 15.4412 28.2089 17.3933
Au 21.2373 26.4224 12.7791
Au 19.7856 27.4471 15.0548
Au 18.3456 28.3467 17.3738
Au 22.6576 27.3464 15.0955
Pd 21.216 28.3302 17.3938
Au 24.0626 28.1916 17.4034
Pd 18.3469 13.1273 12.7793
Au 16.893 12.2093 15.0529
Au 15.4843 11.3382 17.371
Au 21.2535 13.1444 12.7957
Au 19.8007 12.1112 15.0464
Au 18.3544 11.2057 17.3642
Pd 22.6812 12.2171 15.0706
Pd 21.2224 11.2157 17.3634
Au 24.077 11.3576 17.3802
Pd 25.9253 15.9093 25.0619
Au 25.9001 23.5926 25.0804
Pd 25.0592 13.6068 23.6459
Au 25.0194 25.935 23.6233
Au 23.6189 14.4776 25.9527
Au 23.5873 25.0218 25.9688
Au 25.924 15.9156 14.4872
Au 25.93 23.6343 14.495
Pd 25.0459 13.6001 15.9094
Au 25.0398 25.946 15.9362
Pd 23.6189 14.5034 13.5987
Au 23.6199 25.0472 13.5932
Pd 13.5639 15.9018 25.0444
Pd 13.5595 23.5957 25.0579
Au 14.4611 13.6031 23.611
Au 14.4454 25.9345 23.6251
Au 15.8937 14.4905 25.9365
Pd 15.8803 25.0472 25.9495
Au 13.6334 15.9025 14.4501
Pd 13.592 23.6118 14.4446
Pd 14.4993 13.5948 15.8873
Au 14.4603 25.9492 15.877
Au 15.9496 14.4974 13.5894
Au 15.9336 25.0622 13.569
Au 31.2581 19.7301 12.6902
Pd 31.3809 19.747 15.4869
Au 31.4658 19.7351 18.3413
Au 31.4878 19.7172 21.2048
Au 31.4348 19.7506 24.0473
Au 31.258 19.7429 26.874
Au 8.31881 19.7433 12.5946
Au 8.13012 19.7291 15.4241
Pd 8.08117 19.7266 18.3127
Pd 8.07333 19.7269 21.1735
Pd 8.12514 19.7298 24.0178
Pd 8.2712 19.7403 26.7853
Au 12.6185 31.2788 19.7554
Au 15.455 31.4591 19.7645
Au 18.3346 31.5125 19.7646
Au 21.2155 31.4879 19.778
Pd 24.0676 31.3809 19.7865
Pd 26.8451 31.2262 19.7824
Pd 12.7036 8.27017 19.7216
Au 15.505 8.07607 19.7268
Pd 18.3503 8.04725 19.722
Au 21.1918 8.04161 19.727
Au 24.0711 8.10621 19.734
Au 26.8914 8.28803 19.7262
Au 19.7101 12.6555 31.2501
Au 19.7022 15.4774 31.4079
Au 19.716 18.3068 31.4771
Au 19.7489 21.1848 31.4931
Au 19.7545 24.0276 31.4368
Pd 19.7587 26.8241 31.2526
Pd 19.8171 12.7215 8.31143
Au 19.8116 15.5031 8.15347
Pd 19.804 18.335 8.13727
Au 19.795 21.1749 8.09069
Au 19.8079 24.0264 8.11715
Au 19.7821 26.8485 8.26527
Au 29.0348 18.2878 27.8843
Au 26.7732 16.8237 28.8129
Au 24.4437 15.4056 29.6859
Au 22.0926 14.0126 30.5012
Au 29.0268 21.2201 27.8874
Au 26.7758 19.7739 28.9439
Au 24.481 18.3203 29.8547
Au 22.1123 16.881 30.6697
Au 26.7037 22.6887 28.8191
Pd 24.4595 21.2339 29.817
Au 22.1471 19.778 30.7246
Pd 24.4059 24.0714 29.6715
Pd 22.1322 22.6395 30.643
Au 22.1181 25.4841 30.5191
Au 29.0474 18.2707 11.6962
Pd 26.7417 16.848 10.7932
Pd 24.4488 15.4492 9.91609
Pd 22.1525 14.0694 9.06841
Au 29.0678 21.2067 11.674
Au 26.8044 19.7332 10.6425
Au 24.5139 18.2938 9.74956
Au 22.172 16.9025 8.8945
Au 26.7781 22.6636 10.7356
Au 24.4912 21.2131 9.72331
Au 22.1763 19.7636 8.8569
Au 24.4632 24.0848 9.84711
Pd 22.1748 22.6384 8.89408
Au 22.1408 25.4854 9.03495
Au 10.4446 18.2894 27.8177
Au 12.7315 16.8483 28.7825
Pd 15.0693 15.4182 29.627
Au 17.3497 14.0203 30.4785
Au 10.4349 21.1763 27.8118
Pd 12.6831 19.7451 28.8627
Au 14.9944 18.3018 29.8129
Pd 17.3487 16.8555 30.631
Au 12.7107 22.6116 28.7643
Pd 14.9714 21.1912 29.8064
Au 17.3084 19.7304 30.7353
Au 15.0185 24.072 29.6852
Au 17.3195 22.6153 30.7071
Au 17.3768 25.5102 30.5454
Pd 10.5287 18.2959 11.6426
Au 12.8058 16.8663 10.7249
Au 15.1396 15.4441 9.8496
Pd 17.482 14.0662 9.04084
Pd 10.5207 21.169 11.6405
Au 12.7647 19.7393 10.5976
Pd 15.0802 18.3072 9.73148
Au 17.4349 16.8965 8.87455
Au 12.7781 22.629 10.6984
Pd 15.0686 21.1857 9.72356
Au 17.3934 19.7423 8.82403
Au 15.0816 24.0775 9.81258
Au 17.3961 22.6059 8.84861
Au 17.4177 25.5002 8.99259
Au 27.8573 29.0611 18.3126
Au 28.78 26.7974 16.8841
Au 29.6892 24.4894 15.4562
Au 30.5418 22.1162 14.0419
Au 27.8419 29.0848 21.2542
Au 28.8863 26.8134 19.7862
Au 29.8326 24.5115 18.3454
Au 30.7105 22.1362 16.9065
Au 28.7826 26.7892 22.6901
Pd 29.8104 24.5193 21.2365
Au 30.738 22.1681 19.7841
Au 29.6729 24.4723 24.1157
Au 30.6879 22.1736 22.6556
Au 30.5197 22.1411 25.5431
Au 11.5997 29.0779 18.2826
Au 10.6789 26.7727 16.8113
Pd 9.84005 24.4226 15.3815
Au 9.03393 22.0938 13.9631
Au 11.6247 29.0396 21.2178
Au 10.5567 26.8144 19.7607
Au 9.64686 24.4945 18.2714
Au 8.81941 22.1282 16.8528
Au 10.7019 26.7372 22.674
Au 9.64253 24.481 21.2144
Au 8.7639 22.1109 19.7375
Pd 9.83507 24.4014 24.0831
Au 8.82363 22.1094 22.6344
Pd 9.01345 22.0647 25.4679
Pd 27.8679 10.4991 18.3048
Au 28.8219 12.7511 16.8893
Au 29.7017 15.0783 15.4342
Pd 30.4926 17.4057 14.0391
Au 27.888 10.5072 21.2074
Pd 28.8823 12.7448 19.7793
Au 29.8487 15.0384 18.3659
Au 30.6717 17.3855 16.9029
Au 28.8173 12.7963 22.6694
Pd 29.7987 15.0381 21.2373
Pd 30.6947 17.3576 19.8017
Pd 29.6587 15.0818 24.0884
Pd 30.6409 17.3632 22.6449
Au 30.5105 17.3763 25.4934
Au 11.6766 10.4289 18.2588
Au 10.7358 12.7218 16.8089
Au 9.86015 15.0325 15.3715
Au 9.0464 17.3857 13.95
Au 11.6657 10.4272 21.2016
Au 10.6076 12.6808 19.7359
Au 9.67355 15.0015 18.2989
Au 8.82125 17.3427 16.8597
Au 10.7205 12.7258 22.6361
Pd 9.69035 15.0019 21.1847
Pd 8.79729 17.3508 19.7438
Au 9.82198 15.0776 24.0596
Au 8.82566 17.3531 22.608
Pd 9.01032 17.4134 25.4576
Au 18.2952 27.8676 29.0739
Au 16.8314 28.8154 26.7907
Au 15.4022 29.6955 24.476
Au 13.9716 30.5259 22.1445
Au 21.2069 27.8548 29.0746
Au 19.7522 28.9196 26.8153
Pd 18.2919 29.8213 24.5152
Au 16.8622 30.7067 22.1905
Au 22.6692 28.8015 26.7787
Au 21.1867 29.8429 24.5124
Au 19.7544 30.7486 22.1939
Pd 24.0716 29.6517 24.4502
Au 22.6528 30.6875 22.1716
Pd 25.4807 30.4784 22.1097
Au 18.2512 11.6676 29.031
Pd 16.86 10.7649 26.7535
Au 15.4363 9.83442 24.4581
Au 14.0322 8.99065 22.1075
Au 21.1842 11.6308 29.0693
Au 19.714 10.6056 26.8129
Pd 18.3005 9.69176 24.5104
Au 16.9038 8.79738 22.1489
Au 22.6449 10.7244 26.7839
Au 21.2038 9.67131 24.5066
Au 19.7597 8.77038 22.1511
Au 24.0944 9.84739 24.468
Au 22.6588 8.81681 22.1531
Au 25.5358 9.01185 22.1103
Au 18.3166 27.8626 10.4548
Pd 16.8808 28.7727 12.7201
Au 15.4289 29.6885 15.0108
Au 13.9867 30.5408 17.3807
Pd 21.2265 27.8348 10.4657
Au 19.7938 28.9135 12.6954
Au 18.3359 29.8632 14.9805
Au 16.8782 30.7298 17.3391
Pd 22.6689 28.7713 12.7573
Pd 21.244 29.8222 15.0221
Au 19.7926 30.757 17.3405
Au 24.1117 29.6749 15.0496
Au 22.6513 30.6971 17.3718
Au 25.5136 30.5254 17.4152
Au 18.3591 11.7158 10.4559
Au 16.9011 10.7571 12.7229
Au 15.4649 9.83267 15.0237
Au 14.065 8.99648 17.365
Au 21.277 11.7249 10.4653
Au 19.8032 10.6482 12.7004
Au 18.3513 9.67208 15.0136
Pd 16.9245 8.85047 17.3562
Au 22.7107 10.789 12.7482
Au 21.2465 9.69587 15.0211
Pd 19.7792 8.81904 17.3601
Au 24.1287 9.87971 15.0468
Au 22.6533 8.85739 17.3489
Pd 25.5255 9.05692 17.3961
Au 28.2645 15.8579 26.4952
Au 28.2562 23.6483 26.5637
Pd 27.431 13.5721 25.0731
Au 27.4051 25.9835 25.128
Au 26.5355 11.2593 23.6601
Au 26.481 28.3088 23.6611
Pd 25.9817 14.4374 27.4212
Pd 25.9332 25.0477 27.4538
Au 25.109 12.1016 25.9898
Au 25.0675 27.4222 26.0156
Au 23.6371 13.0063 28.2975
Au 23.6254 26.4874 28.3136
Pd 28.272 15.8983 13.0423
Au 28.3082 23.6657 13.0169
Au 27.4253 13.5537 14.4358
Au 27.4155 26.0158 14.4652
Au 26.5222 11.2618 15.8778
Pd 26.4877 28.2861 15.9224
Au 25.9571 14.4638 12.1208
Au 25.9889 25.1054 12.096
Pd 25.0699 12.1558 13.563
Pd 25.0727 27.4325 13.5759
Pd 23.6338 13.0838 11.2773
Au 23.6442 26.523 11.2464
Au 11.2031 15.8756 26.4761
Au 11.2053 23.6029 26.4839
Au 12.0681 13.5077 25.0768
Pd 12.0595 25.9515 25.0766
Pd 13.0201 11.217 23.6139
Au 12.9686 28.2688 23.6314
Au 13.5264 14.4078 27.4279
Au 13.4883 25.0763 27.4225
Au 14.4354 12.0726 25.9744
Au 14.3876 27.4183 25.9935
Pd 15.8921 13.0358 28.2644
Au 15.8431 26.5172 28.308
Pd 11.284 15.8997 12.9913
Au 11.2533 23.6049 12.9745
Au 12.1345 13.5302 14.3745
Au 12.0613 25.9774 14.37
Au 13.0499 11.2266 15.8335
Au 12.9754 28.3162 15.8331
Au 13.5889 14.4319 12.0682
Au 13.5601 25.0931 12.0536
Pd 14.487 12.1115 13.5295
Au 14.4403 27.4445 13.4811
Au 15.9472 13.0421 11.238
Pd 15.9278 26.4946 11.2142
Pd 33.4547 19.7148 11.3289
Au 33.6419 19.7219 14.0579
Pd 33.6582 19.7214 16.8808
Au 33.7451 19.7118 19.7667
Au 33.7434 19.7177 22.6526
Au 33.6755 19.7358 25.5236
Au 33.4649 19.7351 28.247
Au 6.10594 19.7399 11.2069
Au 5.89762 19.7277 13.9525
Pd 5.87907 19.7244 16.8412
Au 5.81863 19.7474 19.7281
Au 5.82942 19.7451 22.6079
Au 5.86639 19.7382 25.4456
Au 6.03763 19.741 28.1521
Au 11.2376 33.49 19.757
Au 13.9722 33.7006 19.7621
Au 16.866 33.7675 19.7588
Au 19.7914 33.7744 19.7809
Pd 22.6966 33.6808 19.802
Au 25.5138 33.6284 19.8048
Au 28.2199 33.4541 19.8091
Au 11.3418 6.04066 19.7059
Au 14.0451 5.85271 19.7073
Au 16.914 5.78363 19.7019
Au 19.7811 5.77836 19.7074
Pd 22.6696 5.84579 19.719
Au 25.5338 5.86848 19.7279
Au 28.2655 6.07651 19.7248
Au 19.6937 11.2797 33.4633
Au 19.6979 14.0027 33.6584
Au 19.7178 16.853 33.7359
Au 19.74 19.7424 33.7615
Au 19.7589 22.6386 33.7498
Au 19.7641 25.4996 33.6742
Au 19.7684 28.2017 33.4736
Au 19.8249 11.3473 6.08005
Au 19.8187 14.0646 5.89664
Pd 19.8135 16.901 5.90208
Pd 19.7986 19.7383 5.87454
Au 19.7863 22.5993 5.822
Au 19.7924 25.4644 5.85702
Au 19.7912 28.2024 6.03358
Pd 31.3265 18.3328 29.2054
Au 29.085 16.8716 30.1779
Au 26.7457 15.407 31.0998
Au 24.3665 13.9767 31.954
Pd 21.9878 12.5862 32.7396
Pd 31.3183 21.1663 29.2017
Au 29.1411 19.7565 30.3035
Au 26.839 18.2847 31.2761
Au 24.4542 16.8214 32.1574
Pd 22.0498 15.4008 32.9168
Pd 29.0033 22.6343 30.1416
Au 26.7959 21.2488 31.2651
Au 24.4807 19.7983 32.1962
Au 22.0978 18.3074 33.0434
Au 26.6961 24.0885 31.0869
Au 24.4427 22.6845 32.119
Pd 22.0972 21.232 32.9967
Au 24.3887 25.4953 31.9469
Pd 22.0969 24.0896 32.9167
Au 22.0518 26.9088 32.7828
Au 31.3374 18.3059 10.3215
Pd 29.0258 16.8774 9.43389
Au 26.7358 15.4525 8.52226
Au 24.4367 14.0379 7.64245
Au 22.1221 12.6488 6.79825
Au 31.3614 21.1519 10.3101
Pd 29.1389 19.733 9.31481
Au 26.8437 18.2754 8.33269
Pd 24.5051 16.8387 7.48562
Au 22.1744 15.4541 6.59784
Pd 29.073 22.6034 9.40276
Pd 26.8327 21.2026 8.35701
Pd 24.5005 19.741 7.43145
Au 22.1487 18.3276 6.54745
Au 26.7625 24.0508 8.44284
Au 24.4997 22.6347 7.40494
Pd 22.1349 21.2018 6.57363
Au 24.4198 25.4883 7.56517
Au 22.1498 24.0566 6.56977
Pd 22.0687 26.8739 6.77938
Pd 8.16104 18.3418 29.1392
Au 10.4118 16.8798 30.1315
Au 12.7817 15.4192 31.0398
Pd 15.0953 14.0039 31.8785
Au 17.393 12.5864 32.7516
Au 8.13327 21.1457 29.168
Au 10.346 19.739 30.2483
Au 12.6492 18.284 31.2214
Pd 15.0235 16.8194 32.0529
Au 17.3363 15.4077 32.9395
Pd 10.4181 22.5713 30.0879
Au 12.6324 21.1895 31.2079
Au 14.953 19.7381 32.1747
Au 17.3389 18.2572 33.0317
Pd 12.732 24.0224 31.025
Au 14.9629 22.6395 32.1387
Au 17.3646 21.1836 33.0743
Au 15.0768 25.4937 31.9606
Au 17.3809 24.0943 33.0085
Au 17.4643 26.9294 32.8056
Au 8.24901 18.3144 10.2326
Au 10.5343 16.8969 9.33051
Pd 12.8715 15.4664 8.4737
Au 15.2035 14.0379 7.58448
Au 17.5293 12.6464 6.77043
Au 8.24172 21.1562 10.2352
Au 10.4506 19.7474 9.20503
Au 12.7761 18.296 8.27165
Pd 15.1213 16.8677 7.4497
Au 17.4568 15.4541 6.57976
Pd 10.5118 22.5644 9.36118
Pd 12.7628 21.2001 8.30953
Pd 15.0802 19.7458 7.41306
Pd 17.466 18.3065 6.5603
Au 12.7988 24.0315 8.41788
Pd 15.0801 22.6283 7.43127
Au 17.4236 21.1714 6.50313
Au 15.1378 25.4722 7.53222
Pd 17.4521 24.0678 6.59349
Au 17.4834 26.8972 6.70668
Au 29.2254 31.3636 18.3836
Au 30.1695 29.0904 16.9297
Au 31.0785 26.7813 15.4794
Au 31.9675 24.4137 14.026
Au 32.8038 22.0364 12.614
Au 29.213 31.3696 21.2252
Pd 30.224 29.1471 19.801
Pd 31.1883 26.8466 18.3281
Au 32.1554 24.5007 16.8843
Au 33 22.079 15.4415
Au 30.1452 29.0925 22.6752
Au 31.2255 26.8585 21.2468
Au 32.1825 24.5166 19.8084
Au 33.0686 22.0857 18.3409
Pd 31.0397 26.7514 24.0945
Au 32.1328 24.5156 22.6966
Pd 33.0199 22.0844 21.2397
Au 31.9464 24.4264 25.5428
Au 32.9914 22.1196 24.1236
Au 32.789 22.0587 26.9651
Au 10.2355 31.3821 18.3221
Au 9.3009 29.0795 16.8527
Au 8.41421 26.7067 15.3745
Au 7.58092 24.3655 13.9425
Au 6.77437 22.0379 12.524
Pd 10.2867 31.3273 21.167
Au 9.17805 29.1563 19.7539
Au 8.22085 26.8294 18.2587
Au 7.3554 24.4581 16.7825
Pd 6.60467 22.0692 15.345
Pd 9.35422 29.0181 22.6132
Au 8.22159 26.8155 21.2223
Pd 7.33894 24.4529 19.7314
Au 6.47405 22.0789 18.2738
Au 8.4138 26.6887 24.0643
Au 7.3453 24.4311 22.6663
Pd 6.5095 22.0668 21.1943
Au 7.55674 24.3393 25.4744
Pd 6.58471 22.0561 24.0803
Au 6.73271 22.0212 26.8681
Au 29.2613 8.21173 18.3322
Au 30.1905 10.4619 16.9207
Au 31.1098 12.7838 15.4728
Au 31.9664 15.1278 14.0239
Au 32.7686 17.4289 12.633
Pd 29.2162 8.22036 21.1536
Pd 30.2453 10.4353 19.7535
Pd 31.2068 12.7068 18.3339
Au 32.15 15.0509 16.8865
Pd 32.9015 17.4138 15.4338
Au 30.1872 10.4887 22.6055
Au 31.2299 12.7224 21.2074
Au 32.1709 15.0304 19.8149
Pd 32.9738 17.3919 18.3438
Au 31.0993 12.8104 24.06
Pd 32.0688 15.06 22.6776
Au 33.0134 17.3589 21.238
Au 31.9431 15.1122 25.4937
Pd 32.9099 17.3935 24.1002
Au 32.7738 17.4388 26.9275
Au 10.3352 8.12491 18.2915
Pd 9.4167 10.4221 16.845
Au 8.47943 12.7391 15.3712
Pd 7.63419 15.1101 13.9386
Au 6.78873 17.4273 12.517
Au 10.3213 8.12216 21.1252
Au 9.23822 10.3286 19.7026
Pd 8.32778 12.6526 18.235
Au 7.38834 14.9801 16.7899
Au 6.56179 17.37 15.3589
Au 9.34872 10.4198 22.5836
Au 8.26836 12.6625 21.1717
Au 7.33499 14.9994 19.7253
Au 6.48301 17.3827 18.289
Pd 8.46112 12.7817 24.0231
Au 7.3672 15.0126 22.6213
Au 6.4724 17.3937 21.1645
Au 7.5557 15.1278 25.4672
Au 6.54102 17.3977 24.0591
Au 6.73507 17.456 26.8667
Pd 18.3552 29.1751 31.3603
Au 16.8871 30.1692 29.1074
Au 15.412 31.0933 26.7787
Au 13.9645 31.964 24.4309
Au 12.5378 32.7961 22.0753
Pd 21.1655 29.1686 31.3532
Au 19.759 30.281 29.1756
Pd 18.2807 31.2043 26.8544
Au 16.8287 32.145 24.5453
Au 15.3825 33.0051 22.1476
Pd 22.6234 30.1202 29.0775
Au 21.2257 31.2491 26.8718
Au 19.734 32.1864 24.5556
Au 18.2982 33.0792 22.1549
Au 24.0966 31.0533 26.7473
Au 22.7 32.1289 24.523
Au 21.2348 33.0598 22.1612
Pd 25.4936 31.8744 24.3783
Au 24.1292 32.9482 22.142
Pd 26.8948 32.7053 22.0667
Pd 18.2976 10.3211 31.3096
Pd 16.8822 9.39445 29.0197
Pd 15.4564 8.50115 26.7312
Au 14.0198 7.55957 24.3896
Pd 12.6324 6.75744 21.9928
Au 21.1308 10.2629 31.3692
Au 19.7124 9.20981 29.1443
Au 18.2612 8.2832 26.8381
Au 16.8522 7.36836 24.5065
Au 15.435 6.50672 22.0829
Au 22.6019 9.33011 29.0779
Pd 21.191 8.3109 26.8366
Au 19.7514 7.327 24.5023
Au 18.3371 6.44026 22.0806
Pd 24.0446 8.46601 26.7265
Au 22.6726 7.37086 24.4892
Pd 21.2251 6.49665 22.0666
Pd 25.5082 7.5991 24.3682
Au 24.121 6.53141 22.0937
Au 26.9523 6.74392 22.038
Au 18.3554 29.2183 8.13594
Au 16.8909 30.1495 10.4144
Au 15.4435 31.0495 12.7117
Pd 13.9964 31.925 15.0972
Au 12.5495 32.806 17.4408
Au 21.2114 29.2048 8.15958
Au 19.7917 30.2819 10.3467
Au 18.294 31.2448 12.625
Au 16.8322 32.1628 14.9734
Au 15.3875 33.0133 17.3777
Au 22.6539 30.1252 10.4517
Au 21.2632 31.2339 12.6702
Au 19.7993 32.2019 14.9859
Au 18.3216 33.0881 17.3823
Au 24.1078 31.0501 12.754
Au 22.699 32.1435 15.018
Au 21.2464 33.0796 17.4104
Au 25.5467 31.9443 15.1144
Au 24.1266 32.9858 17.4396
Au 26.9437 32.7869 17.4995
Au 18.4011 10.3529 8.1632
Pd 16.9655 9.44153 10.4343
Au 15.4917 8.46563 12.7174
Au 14.0422 7.56473 15.0765
Pd 12.6558 6.76975 17.4422
Au 21.2459 10.354 8.17543
Pd 19.8114 9.33753 10.3614
Au 18.3415 8.30138 12.6386
Au 16.8811 7.3688 15.0183
Pd 15.4672 6.59026 17.3811
Pd 22.6729 9.45238 10.4576
Au 21.2786 8.3167 12.6495
Au 19.8071 7.33133 15.0238
Au 18.3474 6.50007 17.37
Au 24.1263 8.50519 12.7417
Au 22.7263 7.39196 15.0195
Pd 21.2334 6.54035 17.3887
Au 25.5626 7.62123 15.1042
Pd 24.1452 6.62505 17.3892
Au 26.9534 6.77815 17.4315
Pd 30.577 15.9555 27.882
Au 30.592 23.598 27.9627
Au 29.7822 13.5756 26.4759
Pd 29.733 25.9341 26.5109
Au 28.9042 11.2493 25.0515
Au 28.8417 28.3035 25.1018
Au 27.9515 8.92487 23.5721
Au 27.8951 30.6151 23.6184
Au 28.3179 14.4509 28.8646
Au 28.253 25.0712 28.8986
Au 27.4575 12.1028 27.4161
Pd 27.3774 27.384 27.4561
Au 26.5038 9.73901 25.9594
Pd 26.4555 29.7407 25.9577
Au 25.9686 13.0008 29.7668
Pd 25.9041 26.4463 29.7638
Au 25.0437 10.6211 28.3034
Au 25.0566 28.8561 28.3302
Au 23.5566 11.5719 30.6237
Au 23.5794 27.9082 30.6303
Au 30.5984 15.9301 11.629
Au 30.6381 23.5746 11.5947
Au 29.7763 13.5793 13.0223
Au 29.7722 25.9995 13.0458
Au 28.9033 11.2396 14.4727
Pd 28.848 28.2966 14.5414
Au 27.9526 8.94785 15.9454
Au 27.9402 30.6002 15.958
Au 28.2749 14.4798 10.6904
Au 28.3196 25.0569 10.6364
Pd 27.3939 12.1495 12.1181
Pd 27.4166 27.426 12.1352
Au 26.5164 9.82447 13.5353
Au 26.5316 29.7377 13.5844
Pd 25.9274 13.0896 9.81977
Au 25.9797 26.5061 9.74709
Pd 25.0463 10.7635 11.2601
Au 25.0781 28.8628 11.2435
Au 23.6344 11.6657 8.96113
Au 23.5968 27.9151 8.9157
Au 8.8725 15.9333 27.8755
Au 8.87023 23.5422 27.8752
Au 9.71252 13.5437 26.4676
Au 9.71082 25.9209 26.4718
Au 10.6382 11.1725 25.0148
Au 10.6079 28.2749 25.0486
Au 11.6063 8.8813 23.5574
Au 11.5478 30.5929 23.5872
Au 11.19 14.4439 28.8598
Au 11.1658 25.0177 28.856
Au 12.0821 12.0365 27.429
Au 12.0293 27.4257 27.4215
Au 13.0251 9.73089 25.944
Pd 13.0028 29.7469 25.9292
Au 13.5741 13.0007 29.7526
Au 13.5096 26.4891 29.7828
Pd 14.5059 10.6848 28.2697
Au 14.43 28.8931 28.3163
Au 15.901 11.592 30.5637
Au 15.9181 27.9364 30.6425
Au 8.9934 15.9265 11.5413
Pd 8.9722 23.4994 11.5749
Au 9.80751 13.5596 12.953
Au 9.73722 25.9046 12.9473
Pd 10.7089 11.2287 14.4415
Au 10.5999 28.302 14.4038
Au 11.6394 8.89506 15.8872
Au 11.5535 30.6371 15.8985
Pd 11.301 14.5059 10.6463
Pd 11.2662 24.9777 10.6244
Au 12.1485 12.0806 12.0392
Au 12.0905 27.4285 12.0089
Au 13.0675 9.76639 13.5012
Au 13.0159 29.7819 13.4906
Au 13.6399 13.0294 9.72725
Au 13.5935 26.4833 9.70539
Pd 14.5555 10.7063 11.2158
Pd 14.5216 28.833 11.1804
Pd 16.0434 11.6727 8.93367
Au 15.9477 27.9043 8.88383
