923
Atoms. Timestep: 20758
Au 23.0985 19.9091 18.9211
Au 20.8036 20.9656 23.4147
Au 20.43 22.2942 18.5025
Au 17.3628 15.6782 20.205
Au 12.9319 16.6582 17.4176
Au 13.4764 21.8466 18.1961
Au 17.9514 20.9087 18.942
Au 9.02709 19.3563 20.2796
Au 15.2892 11.9011 22.4649
Au 23.1733 13.5616 17.8265
Au 15.083 11.7593 17.1221
Au 17.5895 18.2005 14.7849
Au 11.29 13.2285 18.9518
Pd 29.7536 11.0468 16.7053
Au 21.1605 23.9766 20.5191
Au 23.4367 20.692 23.5923
Pd 15.0838 18.7369 16.3034
Au 9.00431 24.1588 19.9904
Au 16.057 18.1788 26.8036
Pd 10.1743 27.2272 24.1702
Au 16.2005 32.9588 20.6313
Au 24.7701 22.9445 24.1478
Pd 12.2768 11.4092 17.1668
Au 24.443 20.1353 14.6884
Au 19.9363 10.2403 20.0165
Au 12.1075 18.0289 24.4168
Au 18.5193 17.5449 25.5597
Au 15.0883 21.6125 23.8114
Au 21.1378 17.5369 6.07648
Au 11.9191 24.2977 17.742
Au 13.906 25.9871 16.6565
Au 24.4919 22.3194 32.89
Au 18.6106 19.1137 27.8667
Au 29.0172 8.95531 15.1284
Au 22.6893 18.9212 13.0235
Au 20.1431 11.4223 22.6317
Au 17.6993 23.4168 27.7397
Pd 20.0833 17.9231 13.2872
Au 9.18223 28.8603 20.4172
Pd 23.1804 27.6131 18.0185
Au 19.551 21.1515 21.0508
Au 12.4824 19.4221 17.2151
Au 8.09391 16.1352 12.0178
Au 22.6002 21.9574 13.6665
Au 22.4947 18.371 16.3932
Au 17.4355 16.7816 22.8723
Au 14.1157 24.7869 19.3769
Au 18.1351 21.3762 23.4648
Au 22.4405 22.4537 28.4822
Au 20.802 12.2058 18.3655
Au 20.217 19.6948 25.6833
Au 12.1723 25.7075 21.174
Au 19.1142 18.1877 7.92567
Au 19.8018 16.2982 21.389
Au 20.0013 22.7625 13.2019
Au 25.3104 17.4747 19.3305
Au 29.1733 15.4515 17.4961
Au 25.1863 21.2692 21.5766
Au 27.5478 18.8034 30.4755
Au 16.0771 25.3637 11.9453
Au 4.90659 16.3657 20.5179
Au 10.6586 22.2259 10.5153
Pd 12.0749 19.4993 27.9755
Au 10.8709 23.7494 22.6615
Au 13.3309 32.8656 25.2037
Pd 17.3242 33.9879 25.6847
Au 27.0053 17.3309 17.0374
Au 11.6362 11.2628 23.5126
Au 20.6133 14.9145 9.7431
Au 15.794 12.2825 13.046
Au 24.5681 11.8067 21.3922
Pd 22.3502 8.98705 19.8653
Pd 20.2605 17.068 28.542
Pd 21.8521 18.3577 23.5872
Au 12.3164 25.395 24.2132
Pd 23.2933 14.6337 9.7431
Pd 20.9729 20.6667 11.6733
Pd 22.1323 30.087 17.0484
Au 19.9246 29.3396 18.487
Pd 24.9123 19.016 17.0849
Au 21.3559 14.6623 19.7286
Pd 27.0837 19.5574 27.9132
Pd 23.4415 21.2088 30.6314
Au 17.7406 29.4074 24.4606
Au 34.4511 16.3811 16.1414
Au 25.9606 11.5705 11.3538
Au 23.1924 26.3983 15.7021
Au 25.2397 18.5308 12.2472
Au 21.0526 25.1614 14.6256
Au 18.396 14.1132 22.6424
Au 22.2707 7.86148 24.3868
Au 15.5944 14.6016 31.6618
Pd 16.7272 18.2732 29.6025
Au 14.5897 25.9852 22.4226
Au 17.5972 18.5553 17.6053
Pd 27.9649 16.734 19.6668
Au 17.9097 23.2636 17.5008
Au 15.101 23.2841 10.5963
Au 18.915 32.1197 14.6054
Au 18.3927 23.5086 20.2536
Au 18.6904 20.6545 16.1129
Pd 22.449 21.1159 16.6165
Au 29.5344 27.6111 14.3081
Pd 32.1011 19.1398 22.6269
Au 18.4118 13.6142 8.6446
Au 16.3803 27.6898 10.501
Au 7.59901 26.961 25.1281
Au 20.665 27.3027 16.7359
Au 15.8576 25.1988 14.6947
Au 23.8721 16.6524 24.39
Pd 30.7216 17.8109 13.5538
Au 27.0601 18.8724 21.2908
Au 24.0801 14.8905 20.0195
Au 27.7994 17.8641 23.8808
Au 11.839 15.6536 20.1508
Au 9.2626 16.6649 21.4513
Pd 12.019 21.0607 22.7968
Au 16.1286 14.1318 18.0246
Au 20.0728 8.12333 26.2178
Au 13.9465 21.083 20.9082
Au 15.8249 22.6382 19.5214
Au 18.5306 25.4076 25.832
Au 23.3841 25.7965 20.1183
Au 18.9792 26.1698 21.2037
Au 21.5089 17.1103 26.1448
Au 13.5938 16.4758 22.2266
Au 19.5748 12.8725 16.0354
Au 22.6109 6.31914 19.315
Au 16.5368 13.0731 20.4734
Pd 25.8089 20.2343 19.2127
Au 21.1866 30.9973 13.3414
Au 16.4518 25.8293 17.6532
Au 22.029 23.3149 23.4098
Pd 21.971 16.8188 11.3653
Au 21.3696 15.6687 17.0823
Au 10.412 17.5081 15.8997
Au 18.3526 20.4975 10.357
Au 16.6574 7.97562 12.539
Au 22.3689 16.5438 14.3979
Au 24.4623 14.624 14.6382
Au 19.2876 23.9755 22.9083
Au 25.163 17.3699 14.7739
Pd 20.3086 22.892 15.894
Pd 16.1571 21.1607 16.9179
Au 15.5966 16.8774 18.3475
Pd 15.603 10.5792 19.6016
Au 19.8471 26.976 6.43971
Au 27.5703 22.5135 15.3739
Pd 28.2719 19.2736 18.5757
Au 27.1897 24.4529 17.3729
Au 25.4894 16.6476 21.9604
Au 30.0738 25.9953 18.9866
Pd 6.25803 24.1965 20.2197
Au 13.437 13.9882 17.2595
Au 8.76359 22.2872 15.7675
Au 4.55278 22.0556 20.1019
Au 10.0297 23.399 31.1775
Au 19.7239 29.8307 15.6286
Au 17.5862 31.9419 27.3695
Au 20.0471 28.9619 21.4045
Au 23.5925 31.1573 14.6665
Au 21.5646 33.3623 21.9623
Au 10.134 16.6747 30.9441
Au 17.6934 15.9508 16.4853
Au 20.2247 7.62009 18.6655
Au 20.7689 8.68553 22.1394
Au 21.9185 11.2931 16.176
Au 24.9838 13.0987 25.8599
Pd 26.0324 17.1099 28.594
Au 19.8304 21.683 27.8334
Au 13.9686 26.0549 29.6633
Au 14.9826 24.6083 31.8591
Au 22.6206 19.5869 7.14167
Pd 19.135 24.9081 7.96235
Au 20.0082 22.7764 10.1661
Au 18.6095 25.3297 15.8682
Pd 22.1174 27.7084 24.6322
Au 25.6618 20.7742 25.7427
Au 33.6742 21.2115 24.2191
Pd 20.1636 15.9914 24.0249
Au 31.9605 23.5339 24.0524
Au 28.2031 24.8535 26.7403
Au 26.3658 15.171 24.2846
Pd 22.4138 29.4456 26.7878
Au 20.0512 14.2398 32.0787
Pd 16.0555 27.6996 28.9741
Au 20.8839 20.1503 14.666
Pd 27.0254 16.9374 10.951
Au 21.9582 10.1583 9.44537
Au 26.9751 19.5407 10.322
Au 29.2399 15.8778 12.042
Pd 25.848 14.4517 10.7322
Pd 27.8337 23.3597 12.786
Pd 22.6743 19.1836 10.2696
Pd 28.7679 21.3668 11.2688
Au 13.4453 17.312 26.7174
Au 21.0671 18.7983 20.8571
Pd 24.4024 15.5551 26.9229
Pd 13.1328 24.7311 27.1482
Au 17.465 15.0623 24.9713
Au 22.0658 18.7769 30.6353
Au 12.7296 30.7398 29.8263
Au 16.886 29.5022 31.0166
Au 25.2096 24.8524 32.7791
Au 14.9479 15.992 29.2755
Pd 15.5307 16.4832 10.9848
Au 13.839 21.1972 15.4758
Au 16.8763 23.5602 6.68982
Au 19.2232 12.8551 11.2453
Au 17.5079 22.8699 14.7765
Au 15.9403 20.523 11.5908
Au 19.0975 27.5011 11.4321
Au 21.722 17.2612 8.65823
Pd 25.576 25.0832 25.6003
Pd 26.8375 30.1286 19.9165
Au 26.2965 21.995 9.61074
Au 17.7473 27.915 16.2654
Au 19.4781 27.3258 23.6112
Au 27.6965 21.8196 17.9948
Au 25.4065 26.0963 22.1394
Au 25.3614 18.9069 23.5929
Au 31.6331 26.0706 22.6797
Au 9.15277 13.5318 12.2075
Au 9.06797 15.1218 19.0529
Au 17.6216 7.38112 25.3268
Pd 13.7568 30.0812 21.8384
Au 14.3123 27.645 12.4203
Au 7.22217 17.388 19.9414
Au 13.5478 30.2571 24.5658
Au 8.47917 12.4369 25.3272
Au 13.3575 26.7189 32.2802
Au 26.3722 10.0334 18.2896
Au 19.7775 15.4003 14.6988
Au 31.2179 12.9554 21.1859
Au 26.6184 10.6208 25.6846
Au 24.2066 16.0922 17.0539
Au 33.4339 17.6207 13.6483
Pd 27.0668 19.8665 15.7862
Au 25.3138 12.6723 16.4806
Au 26.2595 14.0851 21.4196
Au 14.0231 19.9271 25.7326
Au 11.3182 8.67177 22.3673
Au 12.0617 13.6605 12.5973
Au 8.25919 15.2257 26.0213
Au 9.18823 9.73872 21.1754
Au 7.34035 22.5765 18.2422
Au 10.5949 11.0266 26.2595
Au 12.8698 16.2733 31.1723
Pd 17.0061 22.8491 31.53
Au 18.5336 26.4193 28.2829
Au 24.2221 32.0385 25.8324
Pd 9.14809 24.5692 17.277
Au 24.2406 30.5358 28.4087
Pd 24.0896 27.1887 26.5945
Au 11.6943 28.4071 30.6485
Au 22.0651 30.7398 22.1624
Pd 20.3917 28.5493 28.7205
Au 10.8422 29.6419 28.2749
Au 17.6032 8.78349 27.578
Au 14.8533 24.6912 24.7942
Au 6.35468 15.215 18.4434
Au 22.541 12.0677 26.5272
Au 20.0604 9.74576 28.531
Au 22.3643 9.25383 27.0705
Pd 20.2825 12.4745 27.797
Au 18.0723 5.98133 19.7288
Au 32.4693 15.2834 14.5496
Au 15.6911 30.2654 19.8446
Au 11.5741 18.2729 21.6527
Au 14.5021 23.6229 8.00303
Au 20.8563 24.9984 11.8886
Au 14.5677 32.7416 22.8234
Au 13.0294 31.0325 27.1978
Au 26.1081 31.0832 23.9208
Pd 15.2177 28.3249 17.8226
Au 14.6776 27.8328 20.521
Pd 20.3633 10.3613 11.693
Au 15.2202 17.8039 13.3716
Au 16.1808 13.715 15.3447
Au 14.4688 16.9307 8.47444
Au 19.6576 16.9529 18.7463
Au 19.2447 15.6779 12.0035
Pd 28.3948 13.7622 19.9619
Pd 21.1367 12.1822 13.4358
Au 32.3739 11.4897 16.7516
Pd 33.4291 16.6406 22.9489
Au 25.9068 17.7786 26.0135
Pd 22.0488 11.9694 20.7461
Au 23.1354 22.6944 18.8349
Au 21.2265 14.0132 22.4671
Au 25.4131 29.664 26.2731
Au 19.0973 25.5905 18.5217
Au 23.0873 23.5799 15.8298
Pd 27.1563 10.7508 15.6774
Au 24.6804 30.0964 18.3097
Pd 17.706 20.5467 7.64335
Au 23.5713 25.8885 10.8484
Pd 15.1319 16.9674 24.4557
Pd 11.3341 25.7324 30.9376
Au 7.47497 20.4769 29.3589
Au 22.3623 21.5618 25.947
Au 16.7269 13.9671 29.1574
Pd 19.1931 23.7809 30.0181
Au 9.20849 12.629 17.3212
Pd 8.30223 24.2424 13.7191
Pd 13.9601 9.2813 16.8015
Au 12.3341 22.3181 13.121
Au 9.46776 9.80468 24.0864
Au 12.4646 24.0716 9.98032
Au 32.6939 22.7978 13.633
Pd 31.7628 20.0477 14.9184
Au 30.7216 13.7589 13.085
Au 29.1302 20.1303 13.8979
Au 31.8306 17.4484 16.0346
Au 31.0191 25.034 26.4771
Au 8.49491 22.9345 28.869
Au 10.5295 17.5904 18.7552
Pd 15.9436 31.7535 24.9118
Pd 6.69992 16.4225 22.5951
Pd 11.4331 22.0405 16.2198
Pd 9.78185 21.8406 13.2478
Au 10.0155 22.1427 18.5153
Au 8.07082 28.3352 22.8088
Au 15.0639 32.3727 18.2119
Au 21.9277 30.4975 29.6101
Pd 20.5523 29.7969 24.2577
Pd 27.1837 29.2446 17.3147
Pd 23.6943 11.9245 14.3692
Au 15.3761 17.2759 31.8384
Pd 20.4713 6.2239 21.0914
Au 10.8864 8.06371 19.724
Au 26.7639 7.41437 19.0136
Au 19.6336 5.05634 15.9228
Au 22.1274 13.4365 30.4053
Au 28.578 17.5455 26.6903
Au 26.127 20.3516 32.1326
Au 19.9528 16.8736 32.6239
Au 17.67 18.2925 32.6097
Pd 23.1082 25.165 28.6886
Pd 26.8193 15.2782 13.1475
Au 19.5319 11.1548 9.15419
Pd 21.7893 24.1456 8.60235
Au 18.302 27.4191 8.6498
Au 20.3938 22.4508 4.64632
Au 18.4245 25.0449 10.5288
Au 22.6279 24.3264 33.2497
Au 29.5051 20.1822 22.8371
Au 23.8316 18.8469 21.3113
Au 25.0528 22.9052 27.4761
Au 22.9815 24.2071 26.1835
Au 24.1275 15.5071 29.9275
Au 32.2225 22.6771 26.6031
Au 21.8772 21.7502 32.8934
Au 28.1132 26.5603 28.7992
Pd 23.2029 17.5222 28.3698
Au 26.2516 16.5857 31.2389
Pd 21.8709 23.7126 30.7979
Pd 17.8313 21.2152 29.5461
Au 27.6857 22.1179 27.2302
Au 33.7428 20.1838 13.1269
Pd 26.211 12.6825 13.7745
Pd 23.9481 13.2995 12.1448
Pd 24.1363 13.1229 7.44538
Au 30.3599 11.5833 11.6617
Au 26.6553 24.0859 7.89655
Au 29.4512 15.7013 14.7784
Au 20.178 20.1063 5.99667
Au 27.0163 20.2253 7.42857
Au 28.8349 21.6929 8.58065
Au 25.3743 9.99204 13.608
Au 24.4608 17.0978 9.87694
Pd 20.5472 28.7791 8.44328
Au 19.7101 27.5067 14.1209
Au 9.24922 20.6775 27.3513
Au 13.5223 20.9638 30.0802
Pd 11.3003 20.4182 25.4701
Au 17.7402 11.3378 28.8578
Au 10.9945 14.4328 29.7546
Pd 16.0017 20.2177 31.2402
Au 17.6821 16.2227 27.8844
Pd 20.0828 12.9627 24.908
Au 11.7082 16.9283 28.7733
Pd 14.0832 19.1733 22.8905
Au 15.4799 20.4108 28.2391
Au 11.56 19.0038 30.9294
Au 12.4273 24.0862 32.7677
Au 19.3149 18.7881 30.5148
Pd 8.02897 17.3726 17.3578
Au 11.2848 19.7045 11.7635
Au 18.0337 16.1972 9.64722
Pd 13.6611 19.9544 13.0948
Pd 13.2317 21.3557 10.7263
Au 16.9708 16.565 7.21626
Pd 13.4965 24.7203 12.4423
Au 21.5003 12.8142 8.14452
Au 14.1102 26.1191 10.0755
Pd 15.1843 23.5694 16.8954
Au 22.4458 15.1626 7.15168
Au 21.07 27.0701 19.6743
Au 16.1697 20.4118 14.313
Au 19.6477 22.4797 7.26337
Au 27.149 28.2644 22.0627
Au 18.2914 30.9534 20.046
Au 34.4157 21.5925 15.3011
Au 30.9508 25.19 13.9401
Au 28.5694 26.8463 16.8854
Au 31.5959 28.2264 18.4476
Au 33.0937 24.7358 15.561
Au 30.1085 22.6347 14.3435
Au 26.7531 23.6748 22.0459
Pd 32.1483 24.465 18.209
Au 29.8944 29.2123 16.6041
Au 28.7412 25.8397 21.6492
Au 32.6134 26.4101 20.1984
Au 28.4817 23.8395 19.7965
Au 12.912 17.9281 14.8756
Au 22.3231 21.4215 21.1047
Pd 9.5528 21.937 24.1201
Au 18.2836 29.6947 10.1238
Au 10.8837 26.5775 16.521
Au 6.19231 21.4081 15.9495
Au 17.1089 25.9682 23.4676
Au 9.91031 15.1691 14.1447
Au 15.16 22.5731 26.5553
Au 15.677 17.8 21.0918
Au 5.24566 23.3615 22.5568
Pd 7.96524 23.5955 22.3548
Au 12.8501 14.6504 27.6797
Pd 7.16758 19.8289 18.2862
Pd 20.0936 7.6987 15.5775
Au 33.1768 14.8581 20.9075
Au 30.4491 15.3861 20.0958
Pd 30.5161 13.1225 18.4632
Au 28.4295 10.6206 23.6991
Pd 28.793 8.81775 17.9069
Au 22.5332 16.419 21.8004
Au 29.3362 18.6745 11.4188
Au 34.7827 19.0781 22.6036
Pd 32.1609 17.3299 20.6804
Pd 29.3084 18.2437 16.0153
Pd 28.1589 15.769 22.1875
Pd 28.0254 21.3324 20.7044
Au 31.0476 24.1358 20.851
Au 19.9053 17.8417 16.0693
Au 19.968 11.8027 30.4409
Au 10.1178 10.3994 18.6053
Au 19.8815 18.253 10.5587
Au 8.64666 12.2591 19.9641
Au 16.3066 9.40788 23.8306
Au 5.75809 16.1076 15.9597
Au 6.55425 17.1852 25.1345
Au 15.5387 7.30152 15.9955
Pd 10.7872 15.0568 16.9812
Pd 11.1762 15.7986 23.0973
Au 16.5284 20.5131 21.4827
Au 6.32057 24.4661 24.8104
Pd 10.8622 21.4843 29.4076
Au 15.5117 29.7268 26.5628
Au 14.2815 28.8507 30.8949
Au 9.47625 26.1261 21.9024
Au 8.09794 25.0284 27.0988
Au 20.605 25.8179 32.3265
Au 19.8992 32.2494 29.0202
Pd 11.7838 28.3645 20.8193
Au 10.7173 29.1136 18.1413
Au 26.1372 26.1103 30.6945
Au 19.9146 33.4902 26.5736
Au 17.2812 33.4711 23.0433
Pd 25.7561 22.9442 19.5079
Au 25.1493 28.0021 24.1048
Pd 20.0435 30.6635 26.8889
Au 13.2732 7.36322 20.769
Pd 14.0333 10.5744 24.5393
Au 6.21415 20.5139 27.0314
Au 16.0651 6.58499 23.4083
Au 22.8661 12.1545 23.7423
Au 17.7063 15.4085 33.1354
Pd 16.6259 9.54177 17.1854
Au 20.4164 4.96234 18.5297
Au 24.0969 10.025 25.0292
Au 18.1755 7.77821 21.9294
Au 10.1321 13.5554 27.2556
Au 21.8825 6.74256 13.854
Au 18.0232 4.09417 17.8513
Au 17.6644 11.9157 24.0737
Au 13.3134 14.9783 24.635
Pd 18.4449 25.1114 13.2507
Au 11.1482 30.8998 20.472
Au 14.0948 30.0203 13.7947
Pd 17.4085 22.8107 9.17246
Au 24.2976 27.475 13.4368
Au 25.7288 29.8591 13.4698
Au 11.8637 26.7224 11.5772
Pd 20.9389 31.7669 19.7819
Pd 25.8141 27.0059 17.4751
Au 24.5668 28.9208 15.8757
Au 15.098 32.7665 27.2439
Au 19.7535 34.0538 23.8244
Au 23.6955 32.0952 20.1914
Au 12.7443 16.9603 12.3508
Au 14.0777 18.7462 10.6187
Au 13.2388 11.1395 12.4821
Au 15.4 9.87035 28.6376
Au 18.0623 6.1977 14.0674
Au 15.6452 5.32897 18.1761
Au 18.1481 9.23664 10.5633
Pd 11.1406 12.9597 15.2935
Au 24.2228 8.9771 10.1892
Au 18.9448 14.3415 18.2405
Pd 15.2966 7.87885 18.8304
Au 13.9292 8.37956 12.9354
Au 23.6482 10.9439 18.6144
Pd 17.437 11.3791 15.4794
Au 34.7151 21.6456 21.7708
Au 25.6617 25.5098 28.2014
Pd 24.2389 20.2175 28.0662
Au 19.4611 28.1194 26.1953
Au 22.3157 14.5465 25.23
Au 31.8752 21.7337 22.0188
Pd 31.2422 20.5339 24.8881
Pd 23.9638 23.7006 21.5613
Au 24.0295 14.3449 22.899
Au 23.5728 25.5922 23.9123
Au 26.5887 14.4371 29.5052
Au 29.9574 23.3675 28.2929
Pd 25.8646 12.5096 19.155
Au 28.3698 31.5574 17.3382
Au 26.6764 8.95799 11.2788
Au 27.9622 27.6556 19.4819
Au 27.944 12.9503 17.27
Pd 21.6389 24.8841 17.7745
Au 25.189 22.7181 14.1517
Au 29.0527 18.848 8.64003
Pd 22.3986 9.34068 14.1832
Pd 24.3816 23.9365 9.19658
Pd 28.6614 12.9142 14.584
Au 18.8017 29.9098 12.8296
Au 9.27432 20.6958 31.2997
Au 10.5463 29.6897 22.9362
Au 4.99516 22.1219 25.0626
Pd 10.3778 22.9884 26.4071
Pd 9.07398 17.141 24.1993
Au 19.736 23.2331 32.5701
Au 12.7566 12.5689 25.8708
Au 16.5752 19.2162 24.1606
Au 8.87535 11.945 22.6981
Au 16.745 27.4106 26.0995
Pd 14.472 15.0492 20.0524
Au 16.5476 30.8334 22.4124
Pd 11.2528 19.9765 14.5797
Au 9.92065 10.5207 15.7514
Au 8.53237 12.5831 14.6384
Au 8.11287 14.8288 16.3181
Au 15.0086 16.0839 15.6363
Au 13.188 30.0537 18.7931
Au 7.87668 17.0559 14.6156
Au 18.5924 20.3866 13.1287
Pd 13.7223 12.5431 14.8089
Au 20.4341 19.5833 18.193
Au 9.36482 18.0205 10.5637
Pd 12.9139 23.5373 30.2445
Pd 23.4675 24.7969 13.3337
Au 31.9953 15.8844 11.8758
Pd 34.574 20.6052 17.9397
Au 33.3494 18.4893 24.9218
Au 34.8817 17.255 20.5841
Au 33.1258 22.3661 19.5575
Au 29.6814 27.8757 23.4206
Au 6.61364 24.0264 15.7399
Au 7.45298 18.7749 12.5819
Pd 12.9254 13.5349 22.1906
Au 16.1768 29.8724 12.0425
Au 11.7474 28.7691 13.4714
Au 12.7036 22.728 24.8939
Au 12.9196 7.29675 15.1561
Au 22.4845 29.5113 19.815
Au 14.6398 30.5582 16.352
Au 8.40794 27.7529 17.7437
Au 18.6938 31.8373 24.8856
Pd 26.3567 25.5274 19.7735
Au 27.7509 29.1567 24.6717
Au 12.6929 27.9197 23.3087
Au 15.6463 8.5732 21.4039
Au 19.5076 14.3941 29.3906
Au 13.7971 7.97337 23.4927
Au 18.0997 5.19284 22.3097
Pd 17.6598 8.69866 14.899
Au 14.4836 12.8404 10.7542
Au 25.9524 9.65132 22.9796
Au 28.5145 16.28 29.272
Au 13.5727 13.7077 30.1695
Au 23.636 17.0442 32.0988
Au 23.2966 26.1427 31.2529
Au 24.2537 13.1554 28.5693
Au 21.5269 26.6995 27.1027
Au 24.8157 18.7937 30.3366
Au 24.8034 19.6349 8.73352
Au 13.2342 19.372 8.06223
Pd 17.5531 22.773 11.9407
Pd 22.8996 28.2798 9.7519
Au 17.9036 21.561 5.1838
Au 17.9393 18.7088 5.59429
Au 26.6774 20.7477 12.9928
Pd 27.0842 21.0633 23.3932
Au 28.2223 12.8666 25.4424
Au 22.0289 14.8155 28.0396
Au 29.6587 18.6999 28.9101
Pd 7.5469 18.1782 27.4809
Pd 30.3387 20.8349 27.4857
Au 28.6871 21.2548 29.69
Au 31.361 18.3466 26.8302
Au 30.5417 15.8462 27.4196
Pd 19.7435 15.0309 26.5979
Pd 27.4433 23.8631 29.3328
Au 30.8928 13.6233 25.7398
Au 33.142 20.304 26.8264
Au 26.9017 22.9316 31.7561
Au 24.6692 23.7079 30.3573
Au 23.5847 19.6148 32.8334
Pd 20.5897 21.2742 30.4725
Au 25.6993 28.1862 28.8465
Pd 26.0396 21.4097 29.6473
Au 18.5437 20.8235 32.2671
Au 32.8396 12.5694 14.2854
Pd 23.2105 10.6351 11.994
Au 28.7114 11.1379 19.1748
Au 26.6737 12.8194 8.84217
Au 26.7341 17.5635 8.2558
Au 30.8739 20.3682 9.76542
Pd 34.1063 19.0165 15.8779
Au 27.6806 17.8259 13.7123
Pd 22.0289 13.8765 15.2839
Au 30.3995 14.0264 10.3794
Pd 21.8128 27.4492 12.2819
Pd 22.9384 21.6214 9.08458
Pd 24.2753 16.0053 12.3633
Au 22.5953 23.1233 11.2242
Au 25.4041 23.5654 11.6058
Au 15.256 21.4749 6.35617
Pd 21.2577 24.6813 6.03286
Au 22.3084 22.2289 6.51886
Au 18.7936 24.4831 5.17213
Pd 22.1094 28.7843 14.6306
Pd 10.6954 24.3595 12.2005
Au 11.754 21.5235 32.1292
Au 23.3939 18.9848 25.8594
Pd 18.9237 9.33973 23.9848
Au 15.3891 15.1948 26.7045
Au 4.90334 23.2949 17.7538
Au 9.48832 18.7307 29.3
Au 12.078 12.0846 28.5456
Pd 17.6928 13.1296 26.7746
Au 14.8042 12.4887 27.8297
Pd 15.3218 30.6578 29.0315
Au 13.7297 19.3945 32.3776
Au 21.5361 16.0754 30.6332
Au 13.2631 10.1188 27.1109
Pd 16.814 25.1694 29.9062
Au 16.0574 27.0474 31.7668
Au 20.7243 19.3799 32.8891
Au 10.9201 24.17 28.6727
Au 15.358 28.3691 23.7053
Au 11.5464 26.9021 28.4961
Au 15.7934 14.5804 8.91737
Au 8.53084 19.7317 14.8146
Pd 15.3632 19.6941 18.99
Au 10.5742 11.4164 13.1815
Au 12.5017 21.9197 8.21571
Au 13.3585 18.0496 19.6887
Au 17.0715 15.7573 13.6479
Au 25.5195 15.1987 8.12794
Pd 24.0303 11.8809 9.64254
Au 15.5957 18.8882 6.83599
Pd 13.2778 23.8638 15.1053
Pd 10.1387 17.7683 13.1867
Pd 17.5474 18.0936 11.9363
Pd 16.6121 18.5432 9.34651
Au 10.7952 19.9392 9.13497
Pd 15.1164 22.7159 13.3376
Au 24.0816 17.3298 7.16151
Au 28.1578 15.1291 9.35363
Pd 16.3727 25.3688 8.86253
Au 16.8382 30.1447 14.7141
Au 23.5739 32.3285 17.3494
Au 26.3095 25.8001 12.7971
Au 31.2417 26.5902 16.3281
Au 31.2657 20.848 12.3411
Au 34.6134 23.3666 17.307
Au 19.449 31.5428 22.3987
Pd 28.2991 25.1733 14.7192
Pd 25.5616 25.1084 15.3178
Au 30.4282 22.2462 18.8069
Au 28.1391 10.601 13.021
Au 29.8666 24.0902 16.7067
Au 26.7818 27.6039 14.9131
Au 28.9761 25.801 12.0689
Au 32.1193 22.3491 16.4434
Pd 29.6593 20.8963 16.5091
Au 35.8328 18.0388 18.025
Pd 25.1556 21.9299 16.9075
Au 35.8653 22.3746 19.502
Au 34.6435 24.7904 19.5302
Au 23.942 32.5331 23.0675
Au 18.2224 18.5572 20.4296
Au 7.03588 21.4049 20.7695
Au 9.8485 28.6961 15.4569
Au 17.0672 27.5979 13.3406
Au 17.2617 26.2405 6.4568
Pd 20.9169 25.2829 24.8592
Au 15.2766 20.9783 8.93953
Au 30.3817 28.0244 20.8984
Au 5.20364 19.277 20.3017
Pd 6.16885 18.7939 15.8355
Pd 20.8199 26.0309 29.7246
Au 17.2743 30.3839 17.5102
Pd 12.6396 28.6903 16.1446
Au 9.02747 24.6882 24.5018
Au 16.6844 32.5265 16.0136
Au 17.4694 20.9271 26.2144
Pd 7.02021 21.4464 23.5393
Au 9.11597 27.6807 27.3533
Pd 9.71367 21.7073 21.3195
Au 12.7614 27.221 18.6371
Au 28.8878 13.2878 22.7665
Au 33.7821 13.7645 16.4961
Au 27.2693 11.4877 21.3519
Au 33.3211 17.7538 18.3217
Au 33.1098 12.9504 18.9961
Pd 25.0393 9.11753 20.486
Pd 26.3399 14.9949 18.4406
Pd 32.0402 15.3475 17.8289
Au 34.6592 15.3492 18.647
Pd 30.8729 13.5976 15.9238
Au 31.3653 10.7029 19.1387
Au 32.6531 13.8655 23.5051
Au 30.4734 17.8663 24.3401
Pd 29.3584 22.8939 22.6307
Au 28.5349 20.0595 25.5267
Pd 26.1113 12.3676 23.6181
Au 29.67 17.8252 21.5399
Au 35.967 19.7278 20.15
Pd 33.3196 19.7508 20.27
Au 31.9125 19.9648 17.7396
Au 19.6832 15.5784 7.25588
Pd 17.6563 10.6725 21.5512
Au 10.1032 18.1665 26.5742
Pd 11.3009 11.355 20.8744
Au 11.8977 17.4915 9.6696
Au 11.3263 8.58935 17.0088
Au 7.26338 14.4497 20.9242
Pd 19.2877 12.9136 20.5117
Au 9.758 19.4935 23.0736
Au 7.14642 21.6297 13.3626
Au 15.0821 27.9063 15.123
Au 19.8624 6.66368 23.8308
Au 10.6465 24.305 14.9224
Au 8.64452 20.5514 11.0928
Pd 22.5341 17.2149 19.0693
Au 7.63914 22.5145 26.0692
Au 12.3774 10.0071 14.729
Au 5.32806 19.4688 24.7432
Au 12.777 22.0612 27.6009
Au 4.64652 20.4991 17.895
Pd 13.5695 28.5795 28.2506
Au 13.982 27.1374 25.9096
Au 11.5995 20.252 19.7308
Au 13.9957 18.4097 29.6357
Au 10.2179 26.4521 19.242
Pd 23.0597 27.9438 29.1085
Au 16.4823 25.6555 20.4016
Pd 15.3771 22.946 29.3502
Au 11.9544 23.0488 20.2311
Au 6.71758 25.9427 22.6281
Pd 27.3795 26.3133 24.0585
Au 18.6803 27.4266 30.8085
Au 21.5274 19.6412 28.1232
Au 12.009 31.9638 22.8611
Au 28.0693 30.0085 14.82
Au 22.1849 32.1781 27.4708
Au 19.4682 30.1497 30.7138
Pd 27.3869 23.3691 24.6571
Au 29.6789 25.0825 24.1939
Pd 29.4496 29.8874 19.2004
Pd 15.5398 11.9108 30.4172
Pd 10.7004 13.5394 24.4152
Pd 16.6613 4.78099 15.7153
Au 11.8859 8.95134 25.0812
Pd 13.7591 12.4376 19.7304
Au 9.1752 16.063 28.3744
Au 23.0692 7.18448 21.8007
Au 24.6735 10.6421 27.6186
Au 12.9403 9.69141 19.2177
Au 15.3417 13.0743 24.9787
Au 26.8151 12.3528 27.7881
Pd 16.2482 10.7849 26.2576
Au 22.3581 11.0925 29.1111
Au 15.5943 14.673 22.65
Pd 21.2732 10.2864 24.8311
Au 22.0935 6.13602 16.6249
Pd 27.8286 9.03145 20.7348
Pd 30.8603 15.5636 22.7474
Au 22.106 8.80873 17.0426
Au 17.7914 8.77366 19.4321
Au 26.0755 32.4326 18.6282
Au 6.71465 25.5147 17.913
Au 19.627 31.9041 17.4178
Pd 13.6465 23.4505 22.3271
Au 8.15687 26.3393 15.505
Au 26.5747 25.7691 10.1433
Au 20.8565 26.4606 9.63173
Au 28.373 23.853 10.1072
Au 29.4511 27.1931 26.0369
Au 17.482 31.8827 30.014
Au 24.7342 26.5559 8.44138
Au 30.5198 23.4751 11.7837
Au 25.9363 31.3629 16.0523
Au 11.0567 31.1575 25.319
Au 25.3076 28.077 10.9952
Au 21.4492 32.3721 15.6258
Au 17.1679 23.3875 24.8805
Au 19.0006 33.6028 20.8103
Au 17.6397 27.995 19.1636
Au 26.2339 32.3434 21.4447
Au 28.3062 11.0241 10.1506
Pd 17.8147 11.7709 18.3679
Au 13.0642 6.78088 17.9747
Au 10.6373 15.6215 11.3048
Pd 14.5485 14.7891 12.9724
Au 30.6696 11.0495 14.2543
Pd 21.6434 14.5828 12.607
Au 24.3858 7.89677 18.0609
Au 15.6517 5.89624 20.8609
Pd 13.5096 10.1387 21.7798
Pd 20.574 20.3568 8.77312
Au 26.0762 10.2601 8.88415
Au 19.4087 9.90047 17.2046
Au 15.1601 6.06566 13.7463
Au 24.1658 7.46335 15.2632
Au 15.4575 10.0515 11.4117
Pd 24.5045 9.99808 16.1865
Au 19.8505 10.2532 14.5535
Pd 15.2712 10.0184 14.4965
Au 14.0135 5.06547 16.0555
Pd 29.7602 22.6642 25.4997
Au 33.5444 24.113 21.863
Au 30.525 19.9849 20.2121
Pd 20.482 24.2896 27.6077
Au 29.9751 10.5902 21.4976
Au 30.4458 17.6971 18.5245
Au 23.1674 9.77339 22.468
Au 28.4143 30.5538 22.0862
Au 29.095 13.7458 27.9887
Au 33.6612 26.5095 17.6365
Au 30.8755 11.8644 23.7558
Pd 23.4232 30.0458 24.3224
Au 29.1361 15.443 24.8973
Pd 19.8404 22.7405 25.3629
Au 32.1698 15.9574 25.2431
Pd 21.6151 32.2154 24.706
Au 27.1042 15.1269 26.9082
Au 26.8555 27.3958 26.5387
Au 17.7914 13.0542 31.4527
Au 21.3926 28.2338 31.2673
Au 26.9341 7.92208 13.7582
Au 24.9433 22.0271 7.19171
Au 26.922 14.9535 15.7498
Au 24.8024 30.0583 21.8082
Au 26.6514 8.07297 16.3746
Pd 23.0664 28.0028 22.0702
Au 17.952 6.88426 17.1399
Au 28.4487 32.2529 19.9409
Au 24.3113 7.76228 12.6052
Au 27.6446 28.1864 12.4078
Pd 17.8348 10.6001 12.7851
Pd 24.3053 20.991 11.5228
Au 19.5311 8.06976 12.8231
Au 17.6386 33.2263 18.4345
Pd 21.9262 8.25271 11.5455
Au 32.1772 18.512 11.3109
Pd 28.1436 13.2792 11.7399
Au 24.4458 24.7768 17.8284
Au 30.4233 16.7906 9.78838
Au 23.9004 24.5645 6.70211
Au 10.6848 25.7218 26.3412
Au 4.60989 20.7461 22.5035
Au 4.59209 18.0058 22.6421
Au 15.7332 25.2888 27.4419
Au 10.997 15.7889 25.9445
Au 14.4087 22.1024 32.3834
Au 10.2242 13.8894 21.4646
Au 9.0271 29.381 25.2681
Au 19.2048 18.7661 23.0604
Au 16.3989 23.4655 22.1835
Au 18.9798 10.7239 26.264
Au 7.49091 26.7337 20.1707
Au 8.38321 14.549 23.4452
Pd 17.9862 25.2227 32.2655
Au 8.05812 19.5658 25.1699
Au 11.6686 28.5631 25.9936
Pd 15.0902 8.37666 26.0083
Au 17.9061 29.4844 28.3574
Au 17.9798 16.1636 30.6918
Au 9.07388 25.8453 29.4592
Au 9.70168 19.8198 17.2562
Pd 20.8412 29.5873 10.9979
Au 5.19226 17.7129 18.0833
Au 22.3162 26.7592 7.44274
Pd 12.5568 15.2444 14.8115
Au 8.29482 23.1602 11.3627
Au 16.9882 11.7465 10.087
Au 9.96052 26.6553 13.5683
Pd 7.12332 19.0217 22.4039
Pd 21.461 25.9381 22.2723
Au 7.00876 14.5998 13.8616
Au 23.3311 29.7372 12.1554
Au 13.252 15.1551 10.3325
Au 13.4641 32.3177 20.3881
Au 16.8753 14.1868 11.366
Au 12.6125 26.4313 14.3101
Pd 21.7425 12.5613 10.7584
Pd 17.3013 28.2991 21.7988
Pd 18.3904 13.2441 13.676
Au 25.0885 27.9662 20.0337
