923
Atoms. Timestep: 20660
Au 20.0068 12.6151 29.6129
Au 19.4392 17.5823 20.8955
Au 13.5962 21.6565 22.6279
Au 15.7164 26.8547 17.7058
Au 7.35673 23.2291 25.4221
Au 16.5803 12.0742 32.0843
Au 12.7934 32.2839 18.1847
Au 12.1148 21.1707 11.3024
Au 25.6893 20.8019 21.0502
Au 29.8099 14.1238 19.502
Au 13.5074 17.0933 24.0695
Au 20.9185 16.9373 18.5193
Au 9.09711 18.7361 22.8509
Pd 29.7065 21.7339 21.5658
Au 25.8741 23.4108 21.7288
Au 23.9184 21.8513 13.9974
Pd 13.181 18.6618 11.1751
Au 8.31208 26.2425 16.7833
Au 19.7987 14.3106 25.4073
Pd 14.7953 24.2556 25.4558
Au 10.3241 31.2079 18.6768
Au 24.7744 23.1848 27.2537
Pd 22.1735 22.3741 18.2343
Au 19.6345 9.48764 13.3166
Au 17.4691 7.38425 13.8636
Au 17.2876 15.3231 25.8943
Au 21.519 18.7358 26.5893
Au 20.6925 14.4828 22.7444
Au 19.6303 16.9826 9.79976
Au 15.4335 19.6231 14.8503
Au 19.1148 27.861 8.14199
Au 25.3463 10.8672 28.4177
Au 18.7276 19.8273 26.7156
Au 23.3463 24.2521 22.6135
Au 24.5263 19.7627 15.7516
Au 18.7032 16.2517 23.4955
Au 16.8279 15.8794 28.7907
Pd 18.4139 13.606 16.389
Au 15.2928 25.2796 15.2577
Pd 31.6321 24.0442 16.2933
Au 17.8658 16.804 18.7849
Au 15.1912 30.0182 27.5069
Au 20.348 9.39444 18.336
Au 25.7972 26.8739 9.97995
Au 21.7636 16.1457 24.8497
Au 23.077 21.0162 27.0237
Au 11.2572 16.66 21.9701
Au 17.5645 35.0192 23.1897
Au 21.26 32.2463 18.3928
Au 18.6102 14.8728 20.964
Au 20.0816 22.2932 26.5016
Au 10.2392 21.5035 13.4741
Au 17.0228 16.0882 8.52568
Au 14.9144 14.9408 12.5798
Au 15.8144 18.3934 9.92459
Au 24.4101 25.4084 20.1983
Au 23.0878 19.0009 6.50669
Au 19.3061 16.1988 16.2633
Au 27.31 27.27 24.4676
Au 10.8869 28.8018 19.478
Au 15.0577 7.22528 21.442
Au 7.21814 21.7094 17.3359
Pd 10.9201 17.7876 24.4517
Au 7.29817 25.3332 23.7
Au 31.7251 25.4815 18.7381
Pd 16.4975 27.9215 26.1092
Au 26.1908 20.4439 17.8644
Au 10.8178 10.2513 19.6996
Au 26.9626 17.6047 12.6454
Au 12.6238 9.48612 15.2082
Au 30.4553 13.398 16.7605
Pd 26.0157 10.3774 25.7389
Pd 17.2691 22.4365 26.1227
Pd 16.6916 25.1747 29.0714
Au 14.9068 24.5206 33.4248
Pd 21.7513 21.3254 7.60916
Pd 22.8309 19.1256 13.7543
Pd 17.5885 31.6417 15.7809
Au 19.3699 30.3341 17.6778
Pd 26.5183 17.723 28.9285
Au 21.9626 12.8414 24.5705
Pd 21.2 19.4027 30.8463
Pd 19.1952 25.934 32.7323
Au 15.2914 13.7766 27.9531
Au 28.36 9.13328 10.299
Au 17.542 12.417 14.181
Au 25.4448 19.9215 12.9317
Au 22.5467 16.9884 15.9347
Au 13.9006 21.7704 7.05196
Au 14.9788 14.2553 30.7402
Au 20.8247 12.0827 17.5659
Au 8.95837 13.2666 24.8135
Pd 18.5367 19.9635 30.559
Au 16.7188 32.3035 27.703
Au 17.8203 25.2638 16.4637
Pd 29.7309 17.5724 22.9068
Au 16.9454 20.8149 10.1132
Au 12.9823 21.1311 13.9827
Au 14.4459 27.7856 13.5094
Au 21.2214 19.577 19.6326
Au 29.7725 26.1272 28.3276
Pd 23.2548 31.8501 20.195
Au 23.0849 27.3924 8.44076
Pd 23.1989 29.3781 21.2583
Au 24.0104 16.3659 6.45727
Au 8.1289 19.1065 12.6318
Au 6.55624 17.1613 23.3118
Au 15.5852 32.1133 17.5632
Au 18.0125 33.8055 20.8531
Au 23.9703 21.4265 23.3679
Pd 29.9752 18.8604 15.6136
Au 17.8804 25.6849 19.1253
Au 25.9189 18.3369 20.0264
Au 30.7631 15.5592 24.8563
Au 10.7623 19.0248 28.6366
Au 13.8662 23.0091 20.2094
Pd 8.44212 16.5618 21.4774
Au 16.1348 22.5547 23.5697
Au 15.0107 16.1839 19.0226
Au 20.4518 18.3517 14.9471
Au 16.4422 21.8621 13.9507
Au 23.4052 20.1529 32.3672
Au 24.2421 20.5055 8.40502
Au 20.9715 22.782 22.8787
Au 21.8099 14.8178 27.4143
Au 13.9799 17.0296 21.3842
Au 22.9201 7.98906 22.3651
Au 20.5386 7.62451 20.8847
Au 22.9462 22.0195 20.9024
Pd 24.9221 22.8668 19.2173
Au 10.9909 32.5098 23.2396
Au 15.2749 30.1294 21.9526
Au 25.0041 25.201 17.4347
Pd 13.8979 23.1781 10.5343
Au 25.9503 8.09767 10.7662
Au 13.087 12.8707 13.3181
Au 30.1639 13.1404 11.7234
Au 29.1628 9.51292 14.7529
Au 24.5377 14.6258 20.4965
Au 21.6737 17.2076 22.3112
Au 18.939 21.089 24.2843
Au 14.2167 20.5868 9.32573
Pd 19.8729 24.0882 18.1612
Pd 16.5333 20.0744 24.8758
Au 13.5194 12.083 21.4324
Pd 13.4388 9.64385 20.1557
Au 12.7322 25.737 14.2752
Au 25.0223 31.3318 15.5552
Pd 31.2755 21.2886 16.29
Au 30.9913 28.2085 18.2136
Au 30.8203 16.4867 27.5389
Au 25.7352 28.7931 29.206
Pd 12.2394 30.8465 25.0152
Au 18.7826 23.8675 24.2553
Au 11.2879 19.6341 18.1877
Au 8.25921 29.1853 19.9827
Au 23.1406 29.7837 25.629
Au 8.9061 21.105 21.4799
Au 7.98408 20.9667 26.9251
Au 16.8735 31.0459 19.8336
Au 20.8279 26.1735 9.24409
Au 21.0798 28.7474 9.96815
Au 13.0249 10.2036 12.5796
Au 16.2705 13.5578 7.23206
Au 19.7279 10.256 28.0642
Au 20.3392 12.6949 20.3388
Au 25.6994 18.4763 7.10648
Au 16.1301 7.51382 26.1963
Pd 14.5058 18.7754 26.1656
Au 21.6462 18.1237 33.4184
Au 21.437 27.4406 26.02
Au 14.6458 26.656 30.1752
Au 14.0864 7.58408 16.3169
Pd 13.5879 27.7386 15.9797
Au 17.5909 24.2857 13.9982
Au 22.3159 25.1419 7.02058
Pd 19.6611 23.0875 15.4777
Au 27.272 10.2825 21.0512
Au 19.7276 21.3419 17.5685
Pd 23.2219 17.5729 19.7155
Au 31.5451 11.4013 21.4461
Au 23.567 16.8337 26.8023
Au 25.6327 19.1035 23.3232
Pd 23.3327 25.7446 10.5592
Au 21.8243 12.5451 31.8104
Pd 24.7353 28.6768 23.591
Au 29.1296 23.4037 15.6584
Pd 26.6068 21.7245 15.0102
Au 17.542 13.6924 11.8996
Au 29.7515 23.0909 24.1727
Au 26.3127 15.678 7.72216
Pd 19.3024 16.5899 7.10325
Pd 26.2921 22.9128 12.606
Pd 19.1973 21.0572 8.23401
Pd 25.5978 24.137 10.2291
Au 8.2531 23.4947 27.9542
Au 27.7154 13.757 17.7236
Pd 17.7394 16.8741 31.1732
Pd 16.6705 25.7578 31.829
Au 19.9016 18.4664 24.3556
Au 17.4981 13.5057 30.1175
Au 12.6503 29.7513 29.1157
Au 19.3421 29.3926 24.6802
Au 25.0076 25.7365 31.528
Au 13.1747 22.4328 32.0985
Pd 14.3836 14.016 17.553
Au 8.20882 23.5049 15.5116
Au 10.8629 26.2258 12.2491
Au 15.2966 9.47975 11.0643
Au 18.2404 23.3152 6.94985
Au 13.2249 11.2539 10.1013
Au 30.5068 21.1819 11.6425
Au 20.0068 14.7786 11.3717
Pd 21.1673 31.4255 24.7743
Pd 26.5264 27.8512 12.4867
Au 18.6393 22.912 10.0156
Au 23.5541 22.7431 6.342
Au 18.4195 28.6949 19.7694
Au 23.1958 26.5273 15.698
Au 22.4027 25.2793 18.0757
Au 23.2656 28.4743 28.0485
Au 25.3191 33.5976 20.6131
Au 21.8056 7.83641 9.07912
Au 12.3377 16.1752 12.3649
Au 14.2237 7.40574 24.1548
Pd 11.6995 23.772 21.8818
Au 15.5598 24.136 18.1386
Au 6.61099 22.6286 22.8004
Au 17.9665 29.8566 27.3013
Au 9.09096 11.7694 22.5609
Au 14.1898 16.5053 29.0646
Au 24.617 12.4457 12.9505
Au 27.6579 25.7065 16.7259
Au 24.3341 22.234 16.7162
Au 25.2914 16.5204 24.6247
Au 25.1689 23.508 24.5281
Au 28.5804 16.9989 19.9988
Pd 24.5406 12.087 24.0997
Au 28.6579 20.9068 16.9562
Au 23.554 11.5577 26.522
Au 10.1081 15.3478 19.7535
Au 8.32767 14.6921 17.8511
Au 15.7033 11.5406 9.05416
Au 8.74019 16.1174 24.466
Au 12.9872 6.85012 19.7112
Au 13.3673 20.0444 16.5765
Au 11.5687 10.1951 27.1511
Au 10.2348 19.8945 25.8985
Pd 12.4985 20.4974 27.0651
Au 15.439 30.0946 15.0163
Au 23.3865 29.2571 15.0339
Pd 19.4753 31.5302 20.3354
Au 23.0674 25.487 27.1548
Pd 27.8531 19.9578 27.6152
Au 25.2756 30.578 27.1983
Au 31.3282 25.4652 25.9994
Pd 18.7521 27.6666 17.2252
Au 16.9533 26.8644 21.313
Au 21.1505 9.97988 25.6455
Au 12.3191 17.7508 30.7206
Au 16.4429 4.10149 17.0047
Au 15.4492 11.569 29.7072
Au 25.2605 9.53851 22.8961
Au 23.0212 12.7515 19.0623
Pd 18.9065 11.6849 25.3483
Au 16.727 5.53748 19.5129
Au 32.0492 24.5587 23.4741
Au 14.5127 25.7876 20.1534
Au 15.8742 21.1698 21.0161
Au 15.5698 18.2152 7.13952
Au 19.3536 18.7244 17.4105
Au 17.0831 33.54 25.2963
Au 25.1265 26.2793 28.7387
Au 15.5082 28.6031 19.7457
Pd 14.1406 29.8698 17.4985
Au 16.6093 25.4316 23.6508
Pd 19.7532 14.5479 18.5031
Au 7.95681 20.7295 14.8326
Au 10.1283 24.1627 17.4859
Au 12.1578 8.61528 17.952
Au 27.3172 21.6275 23.4519
Au 24.2625 9.73757 12.1802
Pd 20.709 20.4595 28.4761
Pd 24.4393 11.8433 10.1212
Au 30.5344 18.4958 18.1668
Pd 24.8264 8.49121 17.8011
Au 14.2134 11.333 27.1742
Pd 24.9645 6.57303 16.0199
Au 28.5471 27.3703 14.502
Au 24.3185 10.4053 20.2146
Au 18.6605 26.5417 30.1286
Au 30.2584 26.3075 16.501
Au 32.2825 19.0149 23.014
Pd 27.3086 14.2555 20.7472
Au 18.7682 29.4242 14.9671
Pd 18.014 18.6727 8.34673
Au 27.4227 25.0225 8.62712
Pd 16.3618 12.7279 25.6051
Pd 12.3315 23.3615 24.4605
Au 11.5875 20.4982 30.691
Au 8.66623 27.6126 24.4286
Au 16.3476 17.5087 24.2841
Pd 14.8606 19.2285 22.6825
Au 20.052 11.7709 22.8556
Pd 16.3995 32.4991 22.6799
Pd 12.9145 12.288 16.009
Au 14.529 15.6886 7.54927
Au 13.6275 8.63392 26.4737
Au 11.0573 12.0935 11.5945
Au 29.1719 26.5339 19.1899
Pd 32.0634 21.8873 23.1916
Au 26.2085 12.1241 19.2059
Au 32.5382 20.9911 20.772
Au 24.2883 16.0667 29.301
Au 22.7738 23.0487 31.8851
Au 10.0428 27.266 26.8927
Au 10.4139 14.7821 10.791
Pd 21.4793 22.5029 13.1801
Pd 15.433 34.7866 21.4604
Pd 9.65362 25.7804 22.203
Pd 9.38947 21.5159 18.8665
Au 9.96711 25.1938 24.9913
Au 12.9064 25.2331 31.8649
Au 19.2056 29.0997 29.6641
Au 27.3116 31.909 19.7605
Pd 22.1488 33.8986 24.1321
Pd 20.4651 26.7635 19.3853
Pd 26.829 8.54341 15.8311
Au 18.288 13.3597 27.5305
Pd 19.1947 7.00154 18.5626
Au 23.9983 9.24559 15.233
Au 30.2102 11.1447 24.0153
Au 31.2127 16.5409 20.0573
Au 23.6348 8.98116 25.1625
Au 17.5455 23.9174 33.5797
Au 19.5581 16.7784 26.5926
Au 16.9602 17.1233 33.717
Au 16.5302 19.3468 32.3586
Pd 18.9547 18.0644 28.8896
Pd 22.152 8.36886 13.4136
Au 14.8398 16.5705 14.9621
Pd 20.4218 20.115 12.9482
Au 13.3946 31.8943 15.663
Au 11.9512 22.4918 8.76512
Au 11.5294 19.8717 8.95488
Au 29.3742 24.1479 30.1272
Au 28.8205 13.5697 24.1862
Au 31.5273 13.4339 23.3179
Au 18.8569 26.7441 24.6166
Au 28.7125 15.6918 29.1445
Au 27.6805 19.8124 30.4572
Au 27.5138 12.9266 28.4178
Au 22.2644 25.6794 32.5166
Au 16.4449 24.049 21.0796
Pd 23.9863 14.3117 25.7771
Au 17.4009 12.3833 21.1323
Pd 18.2259 21.8361 28.6174
Pd 21.8309 23.2141 28.3847
Au 22.8925 32.9655 16.3122
Au 32.5092 22.7821 18.4431
Pd 26.4612 10.3149 8.90744
Pd 26.5963 10.7675 11.5117
Pd 22.5866 12.918 8.29362
Au 26.2846 16.1968 10.4145
Au 21.5919 21.0602 15.4594
Au 23.2129 15.4745 18.0804
Au 16.0276 22.9668 8.65659
Au 31.3608 22.7458 13.9053
Au 19.9669 18.8992 4.1046
Au 22.3012 23.7771 15.7221
Au 26.2661 15.0687 13.5199
Pd 14.6978 32.4554 20.339
Au 19.6662 25.6317 6.67401
Au 7.76555 25.7423 26.4166
Au 12.4164 14.9925 30.5138
Pd 19.4592 15.3346 29.0541
Au 18.8977 6.46035 23.1181
Au 10.7823 29.845 27.039
Pd 12.4061 25.7297 26.169
Au 13.0017 12.6124 29.2188
Pd 26.9275 23.144 17.2959
Au 9.42815 17.455 26.8166
Pd 13.0732 14.6602 22.6834
Au 11.5272 12.7138 23.6496
Au 20.2659 23.4994 33.1028
Au 13.1817 24.5786 29.1597
Au 24.9133 23.4284 29.8723
Pd 16.1772 9.85411 20.8417
Au 13.2386 17.9785 8.44628
Au 10.9781 11.3453 14.1846
Pd 13.1178 18.3892 14.0364
Pd 24.0147 9.29014 9.4011
Au 17.5322 17.9856 15.1909
Pd 21.0815 27.9765 14.3783
Au 21.9149 10.2839 8.02531
Au 9.04927 28.7259 17.4916
Pd 22.9078 24.9346 13.3095
Au 15.8135 23.0526 5.89434
Au 21.1533 24.1779 11.0611
Au 24.8963 17.3625 14.4794
Au 13.5251 26.8618 9.20405
Au 26.4029 12.9897 8.38397
Au 28.3983 28.3847 17.112
Au 31.6581 23.5659 20.8531
Au 24.7995 25.3343 7.91894
Au 21.9826 28.3233 23.6011
Au 27.2882 32.6995 22.4703
Au 29.9077 21.0874 29.1908
Au 27.5702 29.5553 25.8888
Au 21.6135 24.4596 20.4939
Pd 31.8867 22.8667 25.7496
Au 27.1099 30.7197 17.2977
Au 22.0887 29.7124 12.4469
Au 25.4605 20.6403 28.651
Au 27.0349 24.8149 19.5834
Au 12.2891 29.7221 22.4917
Au 19.1906 17.2724 12.7851
Pd 14.5107 29.5652 24.4782
Au 12.7743 29.8613 14.1082
Au 15.5632 32.854 14.4698
Au 5.98559 20.8957 24.9401
Au 16.0725 18.7113 19.8372
Au 19.8964 12.1026 12.23
Au 6.03643 17.7137 20.8177
Au 14.7893 32.1085 25.6335
Au 12.4201 27.935 31.2212
Pd 11.9956 19.1558 21.9788
Au 7.61137 18.705 25.2374
Pd 9.52293 23.6988 20.2957
Pd 17.5415 10.6077 23.2045
Au 29.1928 21.1318 14.2212
Au 20.2688 22.142 20.1652
Pd 27.9507 19.3881 21.9712
Au 27.2737 11.4611 23.5638
Pd 27.8058 12.5659 13.0976
Au 22.5186 23.3833 25.3244
Au 28.9498 17.2713 10.693
Au 26.0922 12.1571 30.5614
Pd 23.5928 18.8012 28.7656
Pd 23.5566 26.2336 24.6127
Pd 27.1083 9.64792 18.4312
Pd 28.0275 16.1688 24.6506
Au 32.1917 14.0607 20.8483
Au 20.6054 5.52554 16.3541
Au 15.7245 10.0111 25.1937
Au 20.5067 20.0337 22.1589
Au 18.7742 14.0972 6.42634
Au 15.2958 12.083 11.8964
Au 18.6032 6.48334 25.8402
Au 10.19 13.2244 15.9124
Au 16.6903 16.6998 21.5551
Au 16.2266 11.9663 16.7868
Pd 10.9332 10.7303 16.9188
Pd 14.2503 10.2021 17.37
Au 12.8136 17.2193 16.742
Au 7.01889 26.9228 19.1084
Pd 14.2747 27.615 22.1927
Au 22.9246 25.2086 29.9038
Au 25.1938 28.0358 26.2162
Au 12.5866 33.5673 25.0821
Au 14.4366 21.6097 25.5369
Au 29.1707 30.9585 21.5074
Au 23.4638 27.7796 30.6903
Pd 16.8 29.518 17.4229
Au 11.4141 28.1776 24.6495
Au 19.1068 24.8614 21.5376
Au 21.3599 33.2246 26.7974
Au 23.2674 31.2045 23.2269
Pd 23.6468 27.4736 13.0606
Au 13.7193 32.0871 22.9913
Pd 18.661 25.1563 11.5469
Au 21.2872 9.76763 15.6628
Pd 15.3865 9.15219 28.3889
Au 14.2326 24.5288 22.6761
Au 10.583 14.1612 13.4144
Au 18.2818 22.1002 21.91
Au 21.1088 10.2827 30.4256
Pd 15.3905 12.2521 23.2007
Au 11.573 12.7195 26.4462
Au 22.6266 9.59034 28.1823
Au 19.226 7.92099 15.9584
Au 26.0088 7.70988 24.8932
Au 26.8363 5.83912 20.4685
Au 26.0566 12.9732 15.2295
Au 20.4296 7.77877 27.418
Au 23.2311 18.5029 24.4097
Pd 14.3798 23.5739 13.3154
Au 14.7611 30.3891 12.3997
Au 13.1614 30.1677 19.998
Pd 18.1428 13.6798 9.25907
Au 21.7075 20.7685 4.99524
Au 18.1348 27.5963 10.6443
Au 7.90227 21.7337 12.2453
Pd 19.821 32.9368 16.1837
Pd 18.0081 30.127 22.1926
Au 25.3559 25.5012 12.4661
Au 18.3215 33.6569 13.9622
Au 18.2341 32.8282 18.2944
Au 11.9111 32.5583 20.6986
Au 18.946 10.087 20.7465
Au 18.1472 11.401 7.7841
Au 16.9328 6.75478 17.0905
Au 19.2316 11.6743 32.0558
Au 13.6755 13.2009 8.16323
Au 15.3491 18.1317 17.2248
Au 22.271 13.1167 10.9654
Pd 26.5277 15.8431 16.1491
Au 17.5119 9.27403 18.3736
Au 27.4908 24.4789 23.6242
Pd 22.7296 12.6499 21.7426
Au 21.7852 10.0681 10.881
Au 25.0831 8.44514 27.3913
Pd 28.4863 14.1165 15.1422
Au 27.2875 24.6802 28.3526
Au 19.1077 18.804 32.9739
Pd 24.1181 13.7749 31.1447
Au 21.9008 14.8079 30.1463
Au 21.3845 5.6476 22.6157
Au 31.9375 27.2496 24.0106
Pd 23.4823 14.762 23.1402
Pd 29.3503 18.7963 12.9048
Au 31.4695 16.3195 16.081
Au 25.0898 24.1811 14.9249
Au 28.5776 7.93235 19.9673
Au 25.7623 21.4864 31.4626
Pd 22.4903 10.4582 23.2499
Au 20.7995 23.1851 5.75689
Au 31.7264 12.1454 18.8899
Au 25.2246 28.6613 16.8347
Au 22.7694 6.08763 14.5484
Pd 23.6194 22.9676 11.6003
Au 31.0087 15.7734 11.4371
Au 24.4607 13.7883 6.63486
Pd 23.863 20.1953 19.0181
Pd 20.5826 23.6068 8.40316
Pd 23.2473 19.4207 21.6875
Au 22.9475 34.6427 21.5508
Au 20.4398 24.9862 26.2313
Au 23.4534 27.7433 18.9099
Au 12.3031 27.0486 28.6091
Pd 10.9554 21.2874 23.3347
Pd 9.78323 18.6366 20.1686
Au 27.4349 26.5369 30.2461
Au 9.2574 11.9176 27.2151
Au 17.6888 19.2433 22.4361
Au 9.92869 28.3942 22.1195
Au 15.4027 23.1578 27.9408
Pd 12.7784 14.8512 15.0879
Au 13.8355 13.6271 25.232
Pd 10.0154 21.6707 16.3264
Au 10.5347 13.5006 29.0485
Au 19.5637 9.33869 9.29181
Au 9.87814 30.9265 21.3485
Au 16.8014 15.9849 5.85952
Au 14.8061 26.2167 27.4182
Au 9.95819 22.8383 10.6377
Au 17.5377 19.5678 12.6818
Pd 16.5946 15.6229 16.6815
Au 13.1476 27.5498 18.6504
Au 16.9381 9.20048 8.91855
Pd 15.1468 23.7666 30.8182
Pd 25.6014 21.4885 10.4178
Au 31.5194 17.3278 13.6067
Pd 32.1712 14.7959 18.2216
Au 32.8144 20.0391 18.2959
Au 27.0491 24.0355 31.3702
Au 29.7287 25.9751 23.6095
Au 25.6428 18.4764 26.5247
Au 10.8624 19.349 15.4131
Au 14.7037 16.0637 26.332
Pd 14.3785 9.67677 22.7549
Au 20.5748 34.4015 19.8554
Au 11.2219 12.8813 9.06336
Au 29.666 9.50055 21.9978
Au 17.8815 8.31845 11.2893
Au 10.1881 28.4074 29.4067
Au 14.2506 34.2554 16.8563
Au 21.2294 34.0136 14.3266
Au 21.3261 32.6365 21.9029
Pd 17.1776 28.3426 31.5158
Au 19.8281 31.6282 28.7555
Au 13.206 28.5439 26.6041
Au 15.3011 11.9236 19.3386
Au 9.56486 14.7629 26.9438
Au 21.5075 5.60584 19.0262
Au 11.0083 12.7539 20.8872
Pd 24.9954 13.7387 17.4964
Au 23.3074 7.32661 11.2396
Au 29.651 15.0828 22.0624
Au 21.0772 7.27733 24.8109
Au 22.9932 17.4486 31.2147
Au 19.5956 14.3268 31.8246
Au 20.5116 24.7222 30.7078
Au 25.1188 16.1559 32.0527
Au 28.6821 31.184 24.1487
Au 22.1349 15.3449 32.7732
Au 24.1421 17.5845 9.07807
Au 10.9515 16.7184 14.694
Pd 16.6078 27.6505 15.327
Pd 29.4943 30.4176 18.7112
Au 19.1612 16.2887 4.54123
Au 20.3333 19.0397 6.77841
Au 27.8626 19.083 24.8725
Pd 25.4515 26.0019 22.7947
Au 28.5669 11.5268 26.217
Au 20.9918 20.8881 33.132
Au 28.4088 17.4039 26.9691
Pd 13.6798 19.1052 28.8686
Pd 21.5024 17.2096 28.7917
Au 26.516 14.8117 30.2085
Au 27.0877 16.7262 22.1966
Au 27.5829 17.1356 31.244
Pd 28.2984 19.6596 19.4103
Pd 25.8904 25.4783 26.0948
Au 28.8916 14.5542 26.7466
Au 20.3309 16.9183 31.2398
Au 20.3748 22.0449 30.6571
Au 19.475 16.2196 33.6898
Au 29.8394 21.0602 26.247
Pd 16.5882 28.0138 28.8786
Au 12.1559 17.284 19.3768
Pd 27.4945 22.2495 29.1393
Au 11.1958 23.2477 30.4304
Au 25.0472 7.46989 13.4486
Pd 17.1937 15.5515 13.9675
Au 31.7618 20.0446 13.705
Au 21.4819 18.1669 11.5269
Au 27.2237 19.0771 14.9755
Au 29.1387 19.7983 9.82314
Pd 30.5395 19.1539 20.8826
Au 30.1856 12.0268 14.3833
Pd 24.0901 14.9633 12.0535
Au 21.6094 17.1167 5.17667
Pd 20.0542 31.6292 13.5539
Pd 22.1089 13.7258 13.5243
Pd 30.4316 21.2624 18.9969
Au 15.2122 28.1246 10.8265
Au 27.7255 22.2069 19.7828
Au 15.6894 25.4175 9.91153
Pd 24.1958 17.6241 11.8048
Au 18.9829 21.0837 5.49504
Au 13.8002 24.4082 7.98569
Pd 21.0742 26.9078 11.8961
Pd 11.9337 24.829 19.3806
Au 20.8108 27.6791 31.4655
Au 21.081 25.557 23.5054
Pd 22.6364 12.3477 29.0628
Au 17.9085 10.4908 30.0828
Au 7.43869 27.4005 21.8252
Au 13.5183 21.787 29.3802
Au 15.0091 16.9675 31.6588
Pd 12.2333 17.5194 26.8761
Au 12.9001 14.5992 19.9735
Pd 14.4301 26.8353 24.704
Au 12.6237 12.0436 18.6926
Au 12.5512 14.8735 27.6459
Au 21.6499 20.7494 24.6762
Pd 19.1683 24.3186 28.4171
Au 20.1557 34.9547 22.4694
Au 15.7107 21.9785 32.9041
Au 18.8821 27.2083 27.3894
Au 17.0382 30.6594 29.8294
Au 28.7 21.9694 31.5288
Au 12.083 15.4643 8.76107
Au 14.7878 8.2895 13.6725
Pd 15.3904 14.2441 21.0737
Au 18.8155 4.44562 18.0563
Au 11.0774 27.9287 14.4905
Au 17.2213 16.2816 11.1838
Au 18.5755 10.5788 16.0769
Au 24.4445 11.2166 7.44114
Pd 15.5969 14.1044 9.91667
Au 23.2412 23.2328 8.98965
Pd 13.632 25.7619 11.6999
Pd 20.5251 14.5797 8.62175
Pd 14.2177 16.3073 10.305
Pd 13.0285 13.8873 10.8263
Au 20.2396 11.9722 9.4965
Pd 16.2351 26.0518 12.528
Au 21.6955 14.6207 6.19846
Au 30.8825 12.9892 25.915
Pd 18.2044 25.3577 8.89816
Au 16.0992 34.5376 18.8812
Au 21.2547 34.9665 17.1902
Au 16.4288 23.2953 11.5492
Au 30.2839 28.6327 20.7397
Au 29.9845 20.2575 23.6774
Au 28.8184 16.6824 14.6516
Au 22.8841 31.8523 13.8464
Pd 25.7968 26.8833 14.9253
Pd 22.5001 26.831 21.45
Au 31.2371 19.2635 27.7137
Au 28.4719 14.7102 9.60005
Au 27.9534 26.8826 21.666
Au 27.8211 25.4341 11.29
Au 30.2844 25.252 14.004
Au 33.0459 17.3222 18.1087
Pd 25.6119 8.10783 20.3636
Au 29.9504 23.4112 27.6231
Pd 16.8951 28.7578 12.8552
Au 29.1164 24.3537 21.3042
Au 24.8635 29.9839 12.9243
Au 19.0619 32.0113 26.2033
Au 6.89044 22.3287 20.1044
Au 9.20977 23.3644 23.1083
Au 10.3985 21.7262 28.3647
Au 11.8062 23.3185 15.2331
Au 10.0645 25.445 14.8858
Pd 20.6778 30.1303 22.2858
Au 18.8636 22.2479 12.6072
Au 25.8521 31.1396 24.4886
Au 14.4237 22.597 15.9379
Pd 13.5738 19.6794 19.8723
Pd 15.9433 20.489 27.6756
Au 28.0047 22.6751 9.94938
Pd 11.9666 26.9016 21.0369
Au 11.6637 14.6823 17.5563
Au 18.7084 35.4128 18.1471
Au 20.4742 25.8891 16.1554
Pd 21.9619 16.3564 13.3802
Au 10.603 24.6573 27.9231
Pd 18.6864 20.549 15.0584
Au 9.09638 24.007 12.9089
Au 19.9105 9.04646 23.1494
Au 23.9979 14.8335 15.0974
Au 33.1343 18.3471 20.5648
Au 32.1607 16.2932 22.5765
Au 32.6323 18.7973 15.9077
Pd 25.3712 10.9662 16.8715
Pd 27.6247 18.0658 17.4077
Pd 29.4263 18.2462 29.3288
Au 30.8416 14.6727 13.9495
Pd 26.3715 27.2187 18.6986
Au 29.2763 15.9624 17.4647
Au 23.5293 6.26415 24.453
Au 29.2145 8.54313 17.316
Pd 27.2435 29.3868 22.7581
Au 21.6724 10.2668 20.6416
Pd 25.2766 6.56471 22.5535
Au 27.8816 17.7454 8.37462
Au 27.5502 7.83195 22.4666
Pd 26.3025 15.6093 27.197
Au 26.4373 13.1562 25.8902
Au 15.4387 17.7762 12.6228
Pd 17.9579 13.5634 23.4811
Au 7.20722 24.8651 21.0194
Pd 28.0738 11.3802 16.3011
Au 11.0308 26.8632 17.0956
Au 18.1988 5.14947 15.2857
Au 11.4513 15.2313 24.9841
Pd 11.551 10.3283 22.3519
Au 15.0629 21.3563 18.3508
Au 8.4745 17.9639 14.9756
Au 12.5635 28.2911 11.7259
Au 16.9583 10.0094 13.1968
Au 9.52845 26.3765 19.4893
Au 11.7464 24.9253 9.93538
Pd 16.9454 14.1234 18.847
Au 8.62126 19.3669 17.2868
Au 15.5484 5.80407 15.0222
Au 12.2809 22.3423 17.9559
Au 7.22102 14.4759 22.7749
Au 9.5468 20.1729 10.6777
Pd 20.6855 29.6652 27.195
Au 21.7403 29.7564 29.8943
Au 12.1317 25.954 23.4676
Au 14.0689 19.8125 31.4983
Au 25.0815 32.4752 18.0733
Pd 21.1379 26.9788 28.8377
Au 19.6591 34.4255 25.0454
Pd 9.89359 14.5194 22.5638
Au 6.58562 19.8308 22.4671
Au 16.1446 21.3095 30.3054
Pd 21.4521 28.2545 17.1263
Au 23.2062 34.2506 18.8833
Au 14.6819 27.2924 32.7078
Au 16.7447 28.2517 23.5368
Au 24.7481 33.4339 23.2551
Au 29.7621 28.7723 23.3925
Au 25.2964 18.7761 31.0684
Pd 23.1452 30.4301 17.638
Au 28.6415 25.2225 26.0137
Pd 25.3989 27.9443 21.0662
Pd 18.3705 21.4877 32.7341
Pd 8.46345 21.0285 24.1956
Pd 14.5267 5.58347 17.9419
Au 16.9039 17.9071 26.9832
Pd 9.91627 12.6292 18.4901
Au 10.6845 16.3336 28.9843
Au 16.7758 8.0451 23.4557
Au 18.431 9.07022 25.5697
Au 9.30284 16.5691 12.5515
Au 11.7603 8.58746 24.5464
Au 17.1139 10.8967 27.4673
Pd 20.9307 12.3569 27.0186
Au 28.2952 9.24154 24.6074
Au 17.8719 8.2244 28.1589
Pd 22.8818 7.97904 19.5748
Au 26.2394 14.3084 23.347
Pd 22.8872 10.2869 17.857
Pd 29.0884 12.3467 21.6503
Au 23.171 12.1881 15.7633
Au 19.2699 5.22456 20.6816
Au 16.981 34.3524 16.2594
Au 17.1692 22.6042 16.4461
Au 14.8994 34.4473 24.0498
Pd 12.7574 19.7588 24.4882
Au 19.6705 27.6073 22.0125
Au 23.3216 20.213 11.1728
Au 17.3564 31.3172 13.0709
Au 14.8987 20.6769 12.0366
Au 27.6966 29.1266 20.0239
Au 17.2911 25.1493 26.4003
Au 16.6137 20.7494 7.12005
Au 26.8295 29.4359 14.7773
Au 16.2173 18.5649 29.6593
Au 19.3092 35.542 15.511
Au 21.1781 29.4615 19.5807
Au 16.2397 25.3603 7.08275
Au 17.6728 22.5662 19.1237
Au 25.2278 29.9713 19.2196
Au 20.332 24.8963 13.6606
Au 29.7984 27.7596 25.9135
Au 26.3722 13.5719 11.0347
Pd 10.0801 22.6403 25.8425
Au 10.0511 16.977 17.3182
Au 14.8287 11.0159 14.5524
Pd 19.6569 14.7095 14.0117
Au 23.096 4.85297 16.9278
Pd 19.2919 19.5684 10.5867
Au 20.5337 12.1897 6.73964
Au 12.455 7.83337 22.07
Pd 17.7386 7.63293 20.8475
Pd 26.2759 18.9148 10.2804
Au 28.4477 11.9647 9.99938
Au 26.2687 15.9122 18.8478
Au 27.5497 8.47094 12.8754
Au 29.3596 10.5389 12.2495
Au 20.3061 12.2195 14.8862
Pd 24.8071 17.7563 17.4599
Au 24.6729 5.93726 18.7276
Pd 24.3087 14.6816 9.24261
Au 22.341 7.53204 16.9135
Pd 25.4552 12.3475 21.6924
Au 27.5242 27.4328 27.5944
Au 27.0708 6.87355 17.9702
Pd 18.9997 32.4291 23.3289
Au 30.6953 10.6849 16.8144
Au 32.3174 20.2664 25.3957
Au 13.1068 10.8821 24.7532
Au 25.4538 30.9874 21.6716
Au 25.5319 20.9325 25.6229
Au 29.6302 23.8117 18.3627
Au 30.7014 9.6087 19.4424
Pd 22.1766 19.2308 17.2126
Au 24.8391 13.5599 28.3096
Pd 22.7079 31.2579 27.9326
Au 30.5863 18.1894 25.3893
Pd 16.9739 30.7423 24.8126
Au 22.9101 7.07395 26.921
Au 21.2123 30.6537 15.6981
Au 23.4166 5.6301 20.9792
Au 23.0852 21.2571 29.8982
Au 28.9918 11.5429 18.9587
Au 25.8618 22.8179 7.87563
Au 24.4263 16.9502 22.009
Au 31.2483 26.2428 21.3597
Au 10.8345 18.8589 12.6754
Pd 21.1239 21.5822 10.4248
Au 18.3281 11.8306 18.6081
Au 23.826 28.5694 10.6929
Au 26.2828 10.4788 14.178
Au 27.1174 20.5073 8.25894
Pd 27.7666 20.7233 11.9209
Pd 22.2428 15.905 10.4039
Au 20.1331 6.55656 13.8038
Au 19.4775 29.3044 12.2397
Pd 21.7364 19.1703 9.1257
Au 21.427 14.442 16.2239
Pd 28.5662 15.1655 12.3313
Au 27.5638 24.924 14.0246
Au 31.3272 18.5817 11.1906
Au 29.0644 23.2886 12.4442
Au 12.8134 31.8035 27.4101
Au 11.5344 21.4121 20.5216
Au 8.31058 13.3572 20.5263
Au 15.6319 15.0087 23.6559
Au 7.79727 17.167 18.8107
Au 10.6838 25.9113 30.4898
Au 6.55592 15.2036 20.1551
Au 14.5939 31.7442 29.413
Au 27.5234 22.6758 26.2353
Au 18.6701 26.9358 13.7312
Au 23.7994 10.8029 30.7396
Au 13.4314 34.6173 19.5254
Au 10.122 10.7097 24.8999
Pd 12.665 23.1005 27.049
Au 8.59325 26.153 28.9039
Au 23.7825 32.4801 25.7429
Pd 21.8214 15.1302 20.4233
Au 17.976 23.4886 30.9178
Au 16.9733 14.7171 32.5907
Au 14.8088 29.3236 30.687
Au 11.8141 23.6822 12.4576
Pd 17.1241 20.0716 17.331
Au 8.7259 15.3309 15.2311
Au 16.4377 27.5901 8.49131
Pd 17.8183 11.0939 10.7307
Au 7.55104 24.2307 18.3317
Au 10.8966 17.4749 10.2613
Au 9.74354 30.2343 24.1381
Pd 15.3067 13.7531 14.9865
Pd 21.8369 16.8073 7.89863
Au 7.27762 19.7496 19.6494
Au 11.573 29.6785 16.7414
Au 15.2228 8.04302 18.8546
Au 13.1774 25.0537 17.0252
Au 20.4928 7.63774 11.3549
Au 12.8523 34.4968 22.2868
Pd 22.2701 11.0566 13.3843
Pd 18.4634 19.9934 19.844
Pd 16.3295 9.08186 15.8234
Au 17.8016 18.5335 5.59617
