923
Atoms. Timestep: 20698
Au 14.1354 26.8969 29.9541
Au 23.1417 19.772 15.8013
Au 10.3619 15.0784 14.976
Au 23.1983 7.71557 15.2343
Au 10.8273 19.8561 25.1279
Au 29.3456 16.0678 24.0056
Au 20.9976 30.9637 11.6741
Au 10.7399 27.7894 17.7473
Au 28.8232 27.6147 15.5205
Au 32.5188 18.0353 28.3819
Au 14.2051 20.4968 15.5353
Au 14.8283 15.1632 17.1037
Au 21.6249 15.494 11.2846
Pd 25.1564 20.6018 17.5776
Au 24.8291 13.2149 32.9628
Au 25.6924 31.3033 15.7643
Pd 16.734 17.3483 20.8958
Au 12.6589 30.4609 10.5937
Au 26.6304 20.2945 33.4821
Pd 23.9447 22.3507 26.1383
Au 23.7793 25.1459 12.204
Au 22.7932 6.20903 20.5019
Pd 20.1245 18.7613 24.3236
Au 29.3087 12.1423 18.435
Au 9.99517 11.1772 18.5871
Au 12.2501 30.6503 26.8321
Au 15.1003 19.7852 30.2607
Au 22.8008 21.6981 21.42
Au 21.3547 25.7796 5.85273
Au 19.9167 16.9002 5.65185
Au 17.278 19.5425 7.16536
Au 13.1415 24.2089 31.2009
Au 33.7734 20.2615 21.5054
Au 19.6725 28.4704 12.1786
Au 16.6316 15.1187 8.85427
Au 14.2101 7.91212 17.5129
Au 28.4878 20.91 13.1518
Pd 13.46 21.3607 8.45665
Au 20.096 19.1588 7.26495
Pd 27.4744 18.7846 30.5005
Au 6.68742 26.6814 19.5837
Au 7.87732 27.9714 17.4319
Au 14.0676 19.8926 12.7657
Au 19.6864 24.3937 8.48364
Au 11.7889 25.7964 29.4728
Au 31.3791 24.1334 18.8283
Au 15.1961 18.027 14.8965
Au 15.2029 29.3288 23.6562
Au 17.2184 32.6349 26.0257
Au 22.639 9.66765 17.349
Au 23.4309 32.7945 22.2052
Au 8.83113 24.2908 27.9951
Au 23.558 13.101 13.7955
Au 5.56086 17.5148 16.6264
Au 21.1692 24.8693 12.9131
Au 29.2154 24.0866 26.2612
Au 24.912 22.4841 19.3827
Au 15.7967 7.92844 15.2795
Au 28.9817 25.6952 13.4864
Au 11.8619 20.3834 22.3399
Au 9.78488 21.9181 12.2319
Au 8.10339 21.8829 10.2054
Pd 16.7625 7.58598 22.2366
Au 4.46956 21.6694 18.7744
Au 19.7869 14.7727 18.7806
Pd 15.3421 24.297 21.1651
Au 18.8121 18.808 12.6569
Au 23.1894 6.30793 25.0688
Au 22.3411 8.52545 29.1583
Au 20.4122 21.6263 4.62467
Au 25.4129 7.00707 20.3954
Pd 16.7072 11.0732 26.2643
Pd 25.4349 13.7419 30.3544
Pd 16.2611 25.2615 30.374
Au 21.6575 28.8898 27.6893
Pd 11.0519 24.1562 11.4393
Pd 17.6705 22.5457 9.32936
Pd 19.1081 30.5003 13.748
Au 19.1365 23.1459 22.803
Pd 15.2301 28.4411 14.7615
Au 28.6844 9.41583 22.7251
Pd 18.1029 20.5035 24.3011
Pd 14.1845 24.294 28.7229
Au 12.1967 13.0037 10.1493
Au 32.4115 15.5627 27.2504
Au 18.8633 6.61586 18.2205
Au 20.4907 20.884 22.6756
Au 30.6261 19.4244 12.683
Au 7.1209 21.3474 19.9847
Au 10.8235 18.1678 9.48492
Au 10.0316 24.1121 23.2415
Au 14.363 9.27958 22.1497
Pd 19.0718 18.7001 21.6857
Au 7.66784 18.5576 20.6564
Au 6.43857 19.6766 18.0151
Pd 11.8294 14.5648 24.2717
Au 10.6495 17.5595 16.4388
Au 11.2857 24.8774 6.675
Au 18.3738 17.1039 7.90136
Au 30.0036 14.2086 12.5728
Au 32.5485 19.7362 19.0288
Pd 10.777 23.2704 29.5837
Au 16.239 28.2839 8.58998
Pd 20.561 26.4841 27.0103
Au 20.6856 13.8434 13.6262
Au 14.8217 8.97301 12.9192
Au 15.0826 15.2333 27.9075
Au 15.7365 26.2218 13.1596
Au 14.4234 23.7009 23.7383
Au 5.64626 17.5653 22.0749
Pd 23.7449 7.51831 22.687
Au 12.3708 23.2842 21.8811
Au 30.1733 9.66112 20.4047
Au 27.1051 14.2683 20.236
Au 15.0319 21.5208 28.1303
Au 10.7802 30.0021 24.5964
Pd 12.1979 15.0806 17.0108
Au 16.3081 19.1365 11.4857
Au 29.8464 16.8509 13.053
Au 13.0656 23.0041 16.3347
Au 22.1245 23.6943 4.35654
Au 13.9038 11.2465 26.8571
Au 9.52766 29.9489 16.8115
Au 31.206 16.4708 21.9867
Au 17.4056 7.99298 13.0647
Au 15.837 20.5538 9.24314
Au 18.6278 11.932 12.5581
Au 20.8989 10.7407 29.762
Au 18.1424 21.0992 20.9393
Pd 29.9771 18.7589 28.7421
Au 6.60051 19.4095 15.0197
Au 18.2346 18.9091 19.0801
Au 16.1121 17.7666 17.6255
Pd 12.0728 21.4446 13.8433
Au 14.6828 11.1497 24.1364
Au 6.81202 20.5176 22.7071
Au 21.7206 8.50491 24.5005
Au 21.4272 17.4227 15.9688
Au 13.0326 8.52807 19.8936
Au 24.5638 8.92088 25.0311
Au 18.5315 25.7055 12.9974
Au 15.887 31.5014 19.4589
Pd 29.0982 23.4223 11.8596
Pd 24.0006 11.441 19.5772
Au 8.14849 20.3109 25.6395
Pd 16.4655 16.0977 25.6992
Au 12.8206 29.8048 14.0862
Au 26.3551 7.9031 22.9783
Pd 15.264 27.1852 17.2336
Au 28.1809 11.582 20.9705
Au 14.9596 18.9855 32.8344
Au 28.9497 25.9754 10.8195
Pd 12.196 18.8626 14.5523
Au 14.2194 12.9506 29.0991
Au 9.23247 16.5506 11.0742
Au 6.697 15.2764 17.8638
Au 24.1876 30.2632 17.9897
Au 18.5484 16.1048 30.6391
Au 21.3164 8.57945 21.6788
Au 29.9567 26.5284 24.8318
Au 10.9386 28.6262 9.47354
Au 19.8156 26.3168 10.6109
Au 12.7705 16.2775 14.4234
Au 27.0669 26.8732 17.5137
Au 10.699 15.4571 26.5658
Au 23.3332 13.366 10.9029
Au 30.4571 24.29 28.786
Au 20.1206 7.29622 13.8164
Pd 20.2791 22.011 25.181
Au 21.4596 24.5045 29.0034
Au 16.3397 28.2217 26.0723
Au 12.1938 30.3737 16.7494
Au 9.89166 19.2581 27.6864
Pd 15.7957 12.6885 12.6042
Au 19.3409 24.149 5.19887
Au 6.6782 22.2086 17.135
Pd 14.1768 28.2756 6.80429
Au 26.2063 14.8852 22.7829
Au 11.6305 27.6018 7.09723
Pd 23.52 26.4661 20.94
Au 26.4049 8.58113 27.6601
Au 13.0282 21.8046 29.8244
Au 32.8158 20.4314 24.2135
Pd 22.2005 12.3024 27.6982
Au 28.4827 18.6683 25.5353
Pd 25.3951 27.766 24.5886
Au 24.6968 19.9468 6.01395
Pd 22.0608 19.4965 9.09518
Au 3.8371 19.0193 18.3016
Au 31.3176 19.3073 21.5799
Au 19.2093 10.6313 21.949
Pd 10.5347 25.906 9.06357
Pd 18.5667 19.6421 9.61374
Pd 25.7956 11.4409 14.2577
Pd 13.6628 28.3537 9.40662
Au 14.3543 21.5085 21.0392
Au 30.8191 20.9054 14.9401
Pd 22.1243 25.2637 15.7235
Pd 16.7468 12.9812 28.1606
Au 29.5093 20.6974 30.5569
Au 24.5442 11.7182 16.7798
Au 5.9353 25.1261 21.5442
Au 23.1106 28.1767 23.0505
Au 22.1562 18.4221 29.1358
Au 20.1987 19.0165 33.8701
Pd 17.6787 14.0025 14.1111
Au 11.453 19.5287 11.8769
Au 12.4891 30.0548 7.87747
Au 14.1245 29.1329 21.1407
Au 7.0214 20.5271 12.4941
Au 20.9821 27.6247 21.2981
Au 29.4582 13.1364 15.9073
Au 31.4425 12.6558 14.2183
Pd 9.21983 24.0812 13.809
Pd 7.48612 23.9058 19.2763
Au 12.691 23.5387 4.61798
Au 21.2763 28.8819 9.92077
Au 27.6521 19.2712 17.574
Au 4.48584 23.4346 16.5379
Au 31.6758 21.9947 22.1035
Au 26.3414 24.0224 30.1846
Au 23.6277 26.9857 9.68536
Au 8.89852 19.3326 11.0146
Au 8.5827 24.6221 10.7185
Au 16.2691 6.17556 17.7146
Pd 21.9573 14.1505 8.76793
Au 17.1531 6.75785 24.9319
Au 19.1938 11.4851 27.5371
Au 7.46458 25.9898 12.7297
Au 9.62958 22.7296 25.8805
Au 17.7325 14.1568 32.4101
Au 4.46728 20.5603 16.2843
Au 26.6475 25.0433 12.0453
Au 27.3306 17.3056 8.92314
Au 18.5498 5.46777 22.829
Au 17.3813 18.7195 34.1181
Au 33.1486 23.2427 23.9689
Pd 26.9987 17.6124 13.5799
Au 26.1638 11.5827 28.88
Au 22.6246 12.5559 21.614
Au 7.45648 27.6153 22.2035
Au 9.4503 15.3298 17.5845
Au 10.7251 30.1532 19.2311
Au 23.597 11.8228 29.9192
Au 7.94956 14.0139 15.7844
Au 14.359 13.9668 23.455
Au 15.9366 5.19016 22.9382
Au 18.4947 32.4822 23.383
Pd 23.3556 14.6421 28.7616
Au 15.5477 10.5997 28.8351
Au 16.6158 32.3672 11.63
Pd 12.0696 24.122 13.9421
Au 23.312 25.2142 30.8633
Pd 20.3842 21.7386 9.3231
Au 12.123 7.95457 22.4482
Au 27.6216 21.6895 18.9642
Pd 11.2818 27.4028 25.6541
Au 22.4089 28.3096 16.4412
Au 24.0214 18.6917 33.7158
Au 17.9823 15.6371 27.9105
Au 17.3452 23.2446 13.7242
Au 19.5012 11.9866 31.8451
Au 22.5593 14.6879 26.1674
Au 14.0085 15.9224 9.97741
Pd 14.4248 16.7698 19.4842
Au 27.9645 9.73398 18.7989
Au 29.7644 23.2772 14.512
Au 20.0076 12.1601 17.773
Au 21.5236 29.9881 30.1975
Au 8.24426 15.1445 13.2703
Au 17.7953 27.8082 23.7447
Au 15.6964 26.0896 7.0916
Au 13.1708 28.5822 18.6429
Au 21.5167 11.3643 12.9552
Pd 11.7052 20.2681 16.9136
Au 18.5853 21.0676 34.6634
Pd 15.5412 21.9552 11.5055
Au 22.8345 15.4184 6.52464
Au 12.033 16.8644 11.6601
Au 28.1511 13.1765 10.8377
Au 26.6693 22.9918 33.037
Au 20.2746 14.3804 6.70707
Pd 22.2509 20.2909 24.9017
Pd 20.9021 19.9373 20.1016
Au 25.5627 12.408 21.6095
Pd 17.0034 16.0577 15.8086
Au 11.7603 21.394 19.6185
Pd 27.7773 12.9722 27.239
Au 30.9799 18.2298 24.1034
Au 29.6291 11.3682 12.5387
Au 28.0652 14.4431 29.8028
Au 19.6353 23.8765 27.055
Au 20.6863 32.9578 21.3856
Pd 27.8808 15.4927 26.0879
Au 18.8562 28.292 8.97962
Pd 15.0657 26.3382 10.3603
Au 18.7159 19.5022 4.82928
Pd 13.9672 11.2954 13.993
Pd 13.5288 14.1582 19.4499
Au 27.5164 11.0215 16.3646
Au 20.6245 27.4034 24.0432
Au 32.3277 20.3571 29.7301
Pd 12.2802 13.2891 21.8384
Au 8.03504 16.5044 22.7036
Pd 16.5236 22.2966 22.7655
Pd 20.837 14.646 16.2897
Au 18.1941 21.3134 11.7356
Au 9.00917 16.1931 20.0855
Au 17.3443 11.2772 16.8226
Au 31.8043 24.8695 26.3533
Pd 23.6065 16.232 9.32811
Au 27.4697 12.3431 31.4808
Au 21.3967 21.4682 34.0616
Au 17.2295 32.458 14.2621
Au 18.6543 13.4969 29.8505
Au 16.5649 20.4728 13.9588
Au 9.07121 27.3159 10.8622
Pd 23.5633 17.484 31.194
Pd 13.4257 23.5804 19.361
Pd 12.8211 13.8213 26.9193
Pd 8.0617 16.8559 15.4535
Au 22.3622 8.70861 12.6903
Au 20.8481 12.7138 25.4188
Au 13.6928 15.9918 25.5042
Au 18.2248 28.2498 33.2552
Pd 32.4608 14.7583 20.0219
Pd 30.0084 20.8047 23.8454
Pd 24.0621 10.9316 11.7815
Au 21.8562 14.5197 23.5346
Pd 8.8706 19.6847 16.4584
Au 26.141 15.052 9.86447
Au 19.6718 8.60201 28.6311
Au 29.0344 15.8233 10.4206
Au 16.6696 10.2395 21.4082
Au 9.39594 21.5335 23.401
Au 22.7133 26.6293 33.0681
Au 20.4358 14.5873 32.297
Au 24.1068 21.5024 33.6583
Pd 25.9132 21.4714 21.6086
Pd 9.08652 18.9155 23.1668
Au 12.8868 19.0051 19.2278
Pd 23.5693 27.0542 14.2909
Au 4.89377 24.3073 19.1439
Au 7.25664 22.756 24.6024
Au 17.3047 23.9609 7.01132
Au 14.565 7.29637 24.0113
Au 22.3654 13.2372 18.5527
Au 27.6469 8.79573 25.2204
Au 15.9478 21.6112 25.6194
Au 28.4764 10.2192 27.5112
Au 25.6253 26.5242 29.8726
Au 27.9184 12.8817 13.7212
Au 21.4444 24.8227 21.9244
Au 27.8166 28.0601 23.3141
Pd 24.8014 24.8184 33.0551
Au 24.8369 25.3533 26.2072
Pd 11.549 22.1307 31.9546
Pd 19.0839 8.48211 25.9604
Au 15.259 24.3946 32.7833
Au 11.4122 25.4413 20.1682
Pd 18.1351 10.9768 19.3305
Pd 12.3651 12.0882 24.8491
Pd 20.8778 20.1634 11.5182
Au 20.5242 12.877 10.771
Au 21.2795 10.5226 19.7243
Au 6.76483 18.3452 24.3359
Au 32.9556 19.6637 16.3415
Au 10.7554 21.0736 9.53134
Au 14.2696 31.4361 12.4339
Au 26.4073 31.7231 18.4013
Au 26.3551 26.3829 9.71937
Pd 17.4626 30.3387 24.7522
Au 22.1571 22.5549 11.4545
Au 10.3774 26.7438 22.9671
Au 27.8108 28.0066 26.1214
Pd 19.7387 9.45342 17.6066
Au 24.0511 7.39345 27.3837
Au 11.4376 24.4681 27.2003
Pd 21.3897 10.9821 23.3601
Au 12.4607 11.4581 19.8043
Pd 16.8034 21.1221 32.4171
Au 19.4753 13.2845 23.1024
Pd 16.6357 19.4517 27.6096
Au 5.12574 22.5273 21.2879
Au 23.6909 16.9589 27.4007
Au 22.2517 19.9201 32.0184
Au 32.1333 21.9901 17.2617
Pd 22.5173 32.0568 19.5903
Au 17.463 25.8073 9.18948
Au 12.2402 9.86417 17.5915
Pd 12.2746 26.6008 10.9311
Pd 22.9047 18.0565 6.7594
Au 15.6125 24.4465 4.93343
Pd 28.837 18.8707 14.9775
Au 21.3612 17.6926 13.0503
Au 17.1431 27.8555 11.3001
Pd 10.5651 28.3076 14.9598
Au 13.3097 21.0166 5.56755
Au 14.5198 17.8443 27.3954
Au 8.24012 13.5082 19.3442
Au 14.8028 10.3629 16.3999
Au 14.855 13.2558 9.90537
Au 14.1203 21.7271 32.6721
Au 29.0231 18.9962 32.747
Au 29.1145 28.6696 21.044
Au 9.60184 29.2813 22.2965
Au 22.166 30.5478 22.0862
Au 14.3008 28.5691 12.0538
Au 30.5056 16.6581 19.4178
Au 31.4372 18.0345 14.9533
Pd 19.0619 16.8985 17.2931
Au 14.8732 31.3505 15.0017
Au 29.3131 20.905 10.6192
Au 17.0849 8.7245 17.6363
Au 18.2267 30.4419 18.341
Au 12.9333 26.7764 13.5583
Au 24.2428 14.5061 20.423
Pd 13.5503 26.2872 27.0292
Au 14.263 20.8383 23.6454
Au 22.5909 18.6603 18.1918
Au 23.5871 32.246 24.8947
Au 28.6876 25.6291 22.4902
Au 12.7839 17.0934 7.90035
Au 16.6357 10.658 14.1795
Au 15.7182 20.7318 34.7726
Au 9.35956 25.4804 25.5858
Pd 11.5697 28.0126 20.7552
Au 20.6874 19.4905 26.9344
Pd 15.8507 27.0384 32.3054
Pd 24.9353 19.835 31.4564
Au 19.8889 6.07205 25.0943
Au 25.4113 23.5589 24.0605
Pd 25.1425 18.7496 29.0358
Au 27.2135 25.5819 32.2131
Pd 20.3803 18.1587 31.3036
Au 20.8806 16.8883 22.5514
Au 26.4098 26.7836 14.4013
Au 32.7133 22.9012 28.168
Pd 23.1179 18.166 11.1327
Pd 28.0326 22.9833 23.6975
Pd 11.2738 15.4331 9.54166
Pd 24.4565 18.4437 24.8809
Au 24.9453 8.99328 29.8943
Au 18.1367 13.5056 25.7831
Au 28.6029 21.4413 26.029
Au 24.5724 15.9893 33.4073
Au 23.0503 21.1555 4.20882
Au 15.7445 17.7921 8.97589
Au 21.3881 7.1702 26.9715
Au 14.2452 6.52376 21.4028
Au 19.3464 11.8573 15.108
Au 20.7682 16.753 27.3117
Pd 19.0863 10.8188 24.775
Pd 15.798 7.99334 19.8075
Au 21.366 23.285 6.84942
Au 24.7526 22.6281 12.4693
Pd 18.0918 26.0665 25.9762
Au 12.6327 19.6401 31.547
Au 17.1334 25.6499 15.639
Au 25.4027 28.4317 21.5654
Au 17.5912 25.6116 33.7338
Au 31.0989 18.2885 31.1137
Au 17.1957 8.85241 27.7433
Pd 9.18941 25.787 18.4244
Au 29.2567 28.1432 18.3726
Au 20.7755 28.235 32.2256
Au 12.9548 27.842 16.0192
Au 27.1564 20.3442 23.7364
Pd 17.1718 26.2291 19.411
Au 12.5457 28.3904 23.3028
Pd 21.8089 29.4292 13.7968
Au 22.2692 12.2311 32.3584
Pd 11.5146 21.5403 27.5038
Au 21.8623 16.8611 33.2091
Au 18.4869 9.08796 15.2381
Au 24.1743 32.8489 17.5072
Au 14.3777 25.2326 15.3554
Pd 21.2971 7.78024 18.9679
Au 16.3174 22.3081 19.1813
Au 33.4928 18.0001 23.0264
Au 29.8582 14.0783 20.3403
Au 11.8063 11.9391 12.5863
Au 25.8229 29.1526 30.2512
Au 16.2756 11.2173 8.97976
Au 26.9826 21.4313 30.8859
Au 18.5728 21.2503 27.1403
Pd 13.8669 23.6779 6.89193
Au 15.4581 24.632 17.9972
Au 18.1191 10.5814 29.8084
Pd 29.5483 22.7866 17.1596
Au 7.00178 23.2113 12.3602
Au 26.036 24.0905 7.48141
Au 12.9122 16.0065 21.8367
Pd 17.8662 23.3038 25.1886
Pd 28.1211 22.7861 28.6126
Au 33.2553 20.5117 27.0927
Au 20.25 24.838 24.5413
Au 22.2445 26.5336 18.4214
Au 26.2761 17.725 26.7898
Au 11.5838 11.0052 15.2257
Au 17.541 22.1385 4.66306
Au 20.8012 23.8593 17.7021
Au 19.99 6.08702 20.6718
Au 12.8092 21.8833 11.2034
Au 23.8668 16.3616 22.9514
Au 29.6314 16.9552 16.8154
Pd 21.0398 9.57193 15.0378
Au 15.5523 30.2488 10.2943
Au 23.1725 20.9608 29.6004
Pd 20.2227 14.1595 27.6719
Au 20.3639 17.7202 10.4343
Au 28.8197 11.3588 24.868
Pd 15.1136 15.1039 14.1805
Au 23.0253 20.3939 13.1822
Au 30.0343 25.7785 17.1689
Pd 23.5862 23.2425 16.8826
Au 23.5473 10.2671 14.6049
Au 17.7814 17.0504 10.5948
Au 26.5044 30.1752 27.6035
Pd 30.5334 23.9775 23.7586
Pd 28.1643 16.8441 28.5329
Au 33.7061 15.4817 22.2634
Au 27.718 27.7774 12.2189
Au 23.9966 10.1731 27.6492
Au 8.55572 28.414 13.2487
Pd 23.1458 26.5242 28.3447
Au 33.1404 17.446 20.3094
Au 26.8019 7.29726 18.09
Au 24.0656 22.7979 6.11306
Au 25.3709 21.5142 8.32211
Pd 18.1243 24.1988 17.7193
Au 9.23826 21.6075 18.2396
Au 10.7209 14.4631 12.2001
Pd 25.9566 20.4409 26.0766
Pd 21.2712 30.5706 17.7488
Pd 20.4312 20.4545 29.5968
Au 24.2837 29.9291 26.0159
Au 15.0395 31.0031 26.1795
Au 19.8464 29.1593 15.9711
Au 8.83983 21.6416 28.1958
Pd 22.1578 17.173 25.0108
Pd 22.2847 24.484 26.2901
Au 20.0855 30.4976 20.3503
Au 25.077 15.541 25.3653
Au 29.7459 26.562 27.5225
Au 9.05021 14.9159 24.5499
Au 16.8101 9.35035 24.1956
Pd 13.1138 18.3879 24.1534
Au 12.6069 16.1309 28.5137
Pd 27.3323 15.4027 12.2943
Au 23.8819 10.2494 22.5867
Au 23.2887 11.6255 8.89945
Au 21.0312 32.3327 14.2068
Au 10.1367 17.2852 13.5254
Au 16.8205 25.0366 23.4672
Au 14.3006 26.4332 19.8269
Au 23.4152 25.0589 7.648
Pd 12.6721 13.5277 14.7699
Au 10.4585 12.9165 16.7096
Au 16.068 22.7996 16.1529
Pd 21.631 22.5722 31.2502
Pd 25.4756 15.3729 14.3635
Au 18.9043 10.753 9.84648
Pd 25.7775 17.6279 11.1089
Au 22.5525 19.0556 22.5101
Au 14.7396 29.0493 28.2122
Au 30.4575 11.4578 22.4765
Au 17.6021 20.9139 29.7256
Au 14.1083 21.1967 18.1085
Au 16.386 12.2457 30.8937
Pd 28.8902 23.4702 31.1809
Au 14.3663 31.7532 21.6843
Au 22.6602 29.1036 19.8359
Au 24.22 13.267 23.9038
Au 18.9468 15.0825 11.9746
Au 22.6421 15.6517 14.2079
Au 19.6372 31.6143 25.8696
Au 25.0919 27.5274 11.9322
Au 18.9875 21.7211 6.97994
Pd 21.1885 32.4127 23.8849
Au 8.33981 26.5217 15.2552
Au 15.4994 14.8915 21.1297
Au 17.206 5.74018 20.3561
Au 10.9563 17.9737 21.3663
Au 11.7937 19.5596 7.40253
Au 10.0798 12.6022 23.6306
Pd 26.9141 10.8886 11.7897
Au 26.6452 21.8533 6.01932
Au 19.5688 24.1932 15.1846
Au 7.93064 21.8662 14.726
Au 26.2519 23.2497 17.0723
Au 29.9435 14.4353 27.7629
Au 28.6638 21.185 21.5049
Au 19.4501 16.2602 14.491
Au 21.2642 21.8313 16.0443
Au 15.9168 19.8524 4.72968
Au 30.1975 13.7804 25.134
Au 13.5026 20.163 26.2501
Pd 5.57856 17.3475 19.3268
Pd 8.74621 25.5775 21.122
Au 18.6706 8.42943 20.252
Au 31.1541 15.2644 15.0787
Au 20.4638 17.3118 19.6446
Pd 22.7027 23.0449 14.1883
Au 29.5325 7.5392 18.6077
Au 30.7801 16.2096 29.4546
Au 16.2854 16.6506 32.3575
Pd 19.8948 25.6247 19.5794
Pd 25.2589 18.8208 22.3414
Au 28.4625 18.3675 11.3847
Au 28.1836 24.5364 18.7486
Au 15.916 14.808 30.4059
Pd 31.0469 14.5713 17.7386
Pd 26.8596 19.3023 20.2654
Au 16.8943 23.0785 34.3672
Au 28.6182 25.8712 30.0031
Au 21.3091 9.92846 26.7816
Au 22.5319 14.3311 34.0262
Au 29.721 23.634 21.0064
Pd 20.1344 28.2797 18.6641
Au 20.7186 11.8785 8.18899
Pd 25.5476 21.5718 28.557
Au 16.1489 26.4528 28.0422
Au 25.2745 8.90962 13.0542
Pd 24.211 17.9278 13.6097
Au 27.9108 24.854 15.8138
Au 24.5269 13.9448 8.02013
Au 31.5608 12.06 19.8782
Au 27.9919 7.72953 20.7164
Pd 25.024 21.6834 15.0142
Au 19.2327 31.953 16.185
Pd 28.3085 14.6705 17.8259
Au 13.4608 14.2436 12.2156
Pd 20.571 25.0592 31.553
Pd 27.7652 16.9682 18.9939
Pd 22.5331 15.9101 18.2157
Au 11.158 28.8105 12.1983
Au 17.6825 14.963 6.28928
Au 6.45411 24.372 14.7731
Pd 22.9493 22.4369 8.8332
Au 8.04466 13.7375 22.1486
Au 25.9891 15.1349 27.9941
Pd 22.1208 27.2773 11.9635
Pd 10.9078 13.8092 19.378
Au 25.9229 16.4555 30.3701
Au 32.2705 17.2955 17.527
Pd 24.7292 13.05 26.8611
Au 15.8881 12.993 18.5457
Au 10.1666 18.9187 18.8523
Au 12.2717 25.1218 24.6571
Au 18.7871 15.5567 21.3115
Pd 16.3811 19.5425 22.4128
Au 23.1989 17.3177 20.4916
Pd 18.6795 25.4574 28.9545
Au 19.6472 15.6681 24.9713
Au 18.3895 18.0013 26.2115
Au 15.0416 8.86238 26.1911
Pd 15.7957 32.1755 23.8083
Au 30.9194 27.1068 22.3685
Au 27.1721 25.5036 27.7467
Au 19.729 30.6755 28.3842
Au 22.1241 31.5134 27.0925
Au 18.3588 30.4366 10.8283
Au 13.844 24.4119 11.7708
Au 24.1387 20.6443 10.6367
Pd 12.8573 9.33399 24.6804
Au 24.6831 18.7166 8.68618
Au 9.83592 26.7796 27.9152
Au 27.8542 24.1234 9.4034
Au 24.8846 24.0522 9.92634
Au 22.4046 21.4315 18.4851
Pd 15.5095 12.9313 15.6207
Au 27.8377 9.63565 13.9276
Pd 16.5485 30.0069 12.9684
Pd 23.7244 14.2843 16.3253
Pd 16.1304 15.0993 11.5914
Pd 18.0662 18.6207 15.3997
Au 25.7473 12.2467 9.74713
Pd 19.8115 26.3327 16.8467
Au 11.3307 22.219 6.86337
Au 27.6761 19.9295 28.1109
Pd 26.8301 19.8248 9.93057
Au 16.9378 30.3712 21.8794
Au 22.7415 24.1438 19.4919
Au 26.8844 22.2212 10.976
Au 20.1801 22.1733 13.3787
Au 31.5734 13.8275 22.5351
Au 27.5495 9.83793 30.1588
Au 30.6064 9.8322 17.7351
Pd 17.9134 27.9261 14.3188
Pd 13.3065 25.9505 8.33243
Au 19.644 23.5292 33.8226
Au 14.9319 22.1996 3.9023
Au 27.627 29.742 16.9211
Au 23.4093 29.5875 11.3214
Au 15.1408 23.6969 9.22821
Au 28.0802 21.7027 8.31559
Pd 17.6035 13.0984 10.4452
Au 33.1275 17.972 25.7994
Pd 14.7224 26.6223 24.3744
Au 25.2904 16.5292 7.27835
Au 19.8656 32.7684 18.7404
Au 23.2795 28.0429 30.6589
Au 32.5227 25.8103 23.9892
Au 15.3197 13.4193 25.8336
Au 23.16 14.799 31.4503
Au 12.803 25.701 17.693
Au 12.1162 28.2755 28.2519
Pd 24.6397 30.4327 23.2841
Au 21.9634 12.1454 15.8783
Au 21.1995 26.7811 8.25467
Au 21.6351 15.0056 20.7871
Pd 13.9352 18.6393 21.6169
Pd 26.0908 9.72592 20.8761
Au 26.9914 19.3907 7.23511
Pd 12.0737 10.7393 22.4971
Au 9.66649 12.6815 14.0576
Au 24.3621 22.6624 31.3315
Au 23.5386 19.7881 27.1473
Pd 20.1044 12.7736 20.5137
Au 16.6158 32.332 17.0032
Pd 22.3979 22.9729 23.8394
Au 8.9488 28.1611 19.9245
Au 28.8119 16.627 31.3215
Au 15.6227 13.273 7.21262
Au 25.8877 6.73594 25.4696
Au 30.4316 21.5595 28.1852
Au 21.4172 6.08183 22.9453
Pd 21.1296 16.6999 8.15539
Pd 19.3704 14.9183 9.25923
Pd 20.5507 19.7177 14.5261
Au 31.3825 20.5901 32.4012
Pd 28.7459 18.6207 22.4555
Au 28.6656 13.5461 22.8405
Au 21.6515 22.0427 27.6137
Au 25.3263 10.8715 31.7441
Pd 24.823 27.7691 18.8874
Au 32.1605 24.6807 21.5489
Pd 25.8567 25.9651 22.5574
Au 14.0755 11.0653 11.2295
Au 9.85934 12.0029 21.1095
Pd 21.1951 15.9944 29.9103
Au 30.4282 11.9243 27.0114
Au 20.1535 19.5073 17.245
Pd 13.2036 25.9335 22.219
Au 30.5076 21.5356 19.4451
Pd 25.4768 15.2179 18.1791
Au 9.91121 29.2703 26.9771
Au 17.1297 14.7491 23.4206
Au 9.62036 23.4075 8.56324
Pd 21.3033 13.3274 30.0583
Au 18.8978 29.3768 30.7171
Au 11.6831 16.4699 19.2207
Au 19.6139 29.9741 23.0578
Au 8.59227 24.0147 16.5363
Au 8.75471 28.0444 24.6974
Au 18.5786 21.5087 15.5772
Pd 17.0947 16.9062 13.2861
Au 15.1778 16.7839 23.2071
Au 13.1425 8.80221 15.0573
Au 21.6661 33.0892 16.8025
Au 14.9734 10.4703 19.0889
Au 11.8621 30.6631 21.7459
Pd 26.9336 29.346 19.4774
Au 17.9377 23.679 31.7838
Au 18.7633 26.3959 6.83044
Au 16.3596 17.3767 29.4282
Au 16.9721 23.4742 28.093
Pd 30.0623 26.1803 20.0212
Au 26.7952 17.2673 23.9145
Pd 13.4586 19.0046 10.0005
Au 10.8721 16.9836 23.9261
Au 27.2948 25.5506 24.8951
Pd 17.2174 30.0822 15.7224
Au 25.3357 27.816 27.4597
Au 27.8092 28.1247 28.8255
Au 24.845 31.0029 20.5828
Au 18.5305 28.0442 28.3456
Au 24.6251 29.5582 13.7449
Au 27.3338 26.7669 20.3209
Pd 26.5281 23.1601 26.4646
Au 24.111 23.8501 28.4883
Pd 25.403 25.1226 19.2736
Pd 23.2603 11.2516 25.2744
Pd 9.4906 20.5017 20.9363
Pd 25.3498 9.54157 18.201
Au 19.2076 8.10622 23.2593
Pd 5.079 19.7403 20.6335
Au 11.9588 22.2662 24.4482
Au 24.1173 17.044 16.2032
Au 30.0623 10.5669 15.1718
Au 18.1236 6.51304 15.6271
Au 25.7625 8.78091 15.7048
Au 15.8248 18.8242 25.0349
Pd 15.6773 19.5647 19.6937
Au 13.5927 28.7049 25.7893
Au 17.034 17.4433 5.47447
Pd 31.3984 22.2808 25.7562
Au 31.4417 22.6759 30.6876
Pd 6.57579 15.3473 20.6523
Pd 26.7892 13.2482 24.8163
Au 18.0803 13.8902 16.8123
Au 24.4421 21.0411 23.7431
Au 18.3877 28.3134 20.8068
Au 13.6057 23.0658 26.3792
Au 16.7764 24.3632 11.3514
Pd 12.6407 19.1922 28.8278
Au 24.9645 24.4916 14.6701
Au 12.253 23.6711 9.16102
Au 23.8909 30.0281 28.7092
Au 13.4085 26.0391 5.51086
Au 24.4982 25.9425 16.8468
Au 26.4936 17.7039 32.7649
Au 18.9709 21.6689 18.3386
Au 32.1682 15.7005 24.5593
Au 24.255 23.9151 21.7198
Au 19.3818 22.919 29.6565
Au 10.551 20.558 29.9899
Au 10.3059 26.3148 13.0029
Au 18.9166 25.9287 22.1092
Au 17.8464 17.3835 23.5806
Au 19.3692 28.8719 25.9754
Au 15.9664 27.096 21.8476
Au 17.0963 15.5075 18.8829
Pd 17.7544 27.9168 17.2578
Au 13.3786 17.7025 16.9071
Au 10.6857 9.47013 20.5765
Pd 17.0379 12.0817 23.498
Au 15.7327 21.779 6.71933
Pd 14.9789 29.9972 17.2462
Au 19.5972 9.43111 12.3118
Au 23.5303 8.8662 20.151
Pd 25.8294 16.7334 20.8253
Pd 26.1791 10.9162 26.1566
Au 31.732 12.1141 16.9585
Au 16.7457 10.2251 11.4422
Au 13.2423 14.3362 7.93705
Au 16.659 20.3135 17.1127
Au 23.8858 7.23284 17.9286
Pd 29.4357 19.0709 19.714
Au 15.0947 16.0836 6.83222
Pd 24.2879 15.6514 11.9743
Au 21.4085 19.0376 4.75667
Pd 27.7975 21.3173 15.8068
Au 22.9991 31.0246 15.6332
Au 28.4618 16.2193 21.4741
Pd 15.6704 24.7022 26.0319
Au 19.4883 21.0713 32.0763
Au 18.9734 18.2783 28.8824
Au 18.9506 16.6511 33.2837
Au 23.2802 31.7103 12.9881
Au 21.7999 29.9405 24.869
Au 29.0039 21.6341 33.1021
Au 21.5805 10.3001 10.4647
Pd 19.4791 23.6495 11.1457
Au 16.499 28.3452 30.1106
Pd 17.932 23.903 20.5364
Au 29.1356 11.9976 29.4049
Pd 7.65591 23.1222 22.0005
Au 26.4389 10.7371 23.5074
Au 30.916 19.629 26.3655
Au 22.3316 23.9497 33.4537
Au 7.55057 25.3899 23.678
Au 26.8394 16.8039 16.3982
Au 20.1505 26.2476 33.9051
Au 26.4494 12.2365 18.6783
Au 27.2372 29.4474 14.2833
Au 26.4771 13.6086 16.1033
Pd 22.013 24.8046 10.027
Au 26.7907 30.1643 24.8402
Au 14.527 22.7571 13.8627
Au 20.8121 7.1821 16.3835
Au 33.111 22.3561 19.8766
Pd 25.2427 17.9638 18.448
Pd 10.4212 22.2659 15.6521
Au 18.2395 12.7762 7.83238
Au 14.5019 19.0219 6.94849
Pd 8.00966 17.5908 18.0143
Au 28.4135 15.3975 14.811
Pd 30.3008 16.9228 26.5907
Au 25.9133 19.1869 15.4243
Au 27.0044 23.838 21.1569
Au 22.2114 20.7678 6.74716
Au 16.1314 28.7726 19.3707
Au 10.979 23.6567 17.9878
Au 11.8372 17.8101 26.5461
Au 23.328 25.5533 23.8325
Au 17.4527 13.0733 20.9199
Au 18.4499 26.6586 31.291
Au 6.39725 25.5091 17.2048
Au 13.1933 31.1404 24.1608
Au 27.1481 30.3914 22.0613
Au 15.5618 22.6964 30.5747
Au 25.2445 27.4008 32.3634
Au 13.2133 31.205 19.2548
Au 9.52192 19.8232 13.9099
Pd 17.2403 30.3197 27.5703
Au 22.834 9.76919 31.4841
Au 22.8965 27.4155 25.7665
Pd 20.6064 27.0662 14.3843
Au 13.9666 17.302 30.6073
Au 28.5314 8.48478 16.3142
Au 20.4566 22.7621 20.3431
Au 25.7083 13.3065 12.2103
Pd 9.00927 17.5917 25.6732
Au 14.7124 12.1488 21.355
Au 19.1037 32.7387 12.3172
Pd 13.2226 12.4685 17.2805
Au 18.0878 32.4574 20.6951
Au 7.55013 17.8503 12.9349
Au 17.7471 18.7615 31.4604
Pd 10.3398 15.0226 21.9985
Pd 27.133 23.0997 13.8451
Au 9.89999 23.1712 20.5294
Au 5.31428 21.9652 14.2387
Au 26.9222 14.9116 32.3937
Au 10.8532 25.6032 15.8036
Au 30.3708 19.6852 17.2454
Au 25.934 20.027 12.714
Pd 24.1545 19.8623 20.0851
Pd 20.7901 27.1952 29.743
Pd 14.5458 17.215 12.346
Au 25.2452 28.5579 16.1825
