923
Atoms. Timestep: 20119
Au 19.7525 19.7734 19.7655
Au 22.0534 19.7864 18.3453
Au 22.0469 19.7885 21.19
Au 17.4632 19.7504 18.3352
Au 17.4571 19.7618 21.1824
Au 18.3318 22.0692 19.7514
Au 21.176 22.0676 19.7447
Au 18.3322 17.4724 19.7734
Au 21.1772 17.4875 19.7743
Au 19.7567 18.3647 22.0767
Au 19.7433 21.1927 22.0609
Au 19.7453 18.3483 17.4748
Au 19.7579 21.1841 17.4647
Pd 24.3386 19.7808 16.9351
Au 24.4084 19.802 19.7537
Au 24.3332 19.805 22.6281
Pd 15.1881 19.733 16.9178
Au 15.1027 19.7448 19.7481
Au 15.162 19.7484 22.6073
Pd 16.9124 24.3591 19.7419
Au 19.7502 24.4432 19.7373
Au 22.5887 24.3604 19.7205
Pd 16.9216 15.1849 19.7811
Au 19.75 15.1122 19.7845
Au 22.605 15.1922 19.7857
Au 19.7649 16.9649 24.3945
Au 19.7509 19.7801 24.4605
Au 19.7439 22.6011 24.3603
Au 19.7427 16.9323 15.1775
Au 19.7548 19.7452 15.0995
Au 19.7666 22.5871 15.1618
Au 22.0922 18.359 23.5729
Au 22.0813 21.2165 23.556
Au 22.0887 18.3346 16.0017
Au 22.102 21.2148 15.9951
Au 17.4239 18.3282 23.5597
Au 17.412 21.204 23.5495
Pd 17.4309 18.2961 16.0043
Au 17.4278 21.1702 15.9881
Pd 23.5195 22.1075 18.3052
Au 23.5273 22.1198 21.1889
Au 15.9891 22.0858 18.3036
Au 15.9837 22.1052 21.1961
Au 23.5392 17.4641 18.3209
Au 23.5354 17.4609 21.2318
Au 16.0017 17.4169 18.3116
Au 15.9851 17.4063 21.2235
Au 18.2994 23.5596 22.0766
Au 21.1877 23.5491 22.0714
Au 18.3054 16.0104 22.1147
Au 21.2078 16.0131 22.1295
Au 18.3176 23.545 17.4134
Au 21.214 23.5425 17.4158
Au 18.3069 15.9961 17.44
Au 21.2018 15.9981 17.4412
Au 26.6354 19.7619 15.5261
Au 26.7413 19.7769 18.3274
Au 26.738 19.7975 21.2021
Au 26.6186 19.8045 24.0443
Au 12.887 19.7188 15.4909
Au 12.7712 19.7324 18.3231
Au 12.7618 19.7325 21.1997
Pd 12.8667 19.7447 24.0247
Au 15.4768 26.6558 19.7491
Au 18.3273 26.7689 19.7333
Pd 21.1785 26.7651 19.7201
Au 23.9981 26.6505 19.7047
Au 15.5147 12.8823 19.7904
Au 18.3338 12.7699 19.7904
Au 21.1948 12.7677 19.7829
Au 24.0364 12.8909 19.7927
Pd 19.7664 15.5669 26.6928
Pd 19.7534 18.3675 26.7778
Pd 19.749 21.1929 26.7654
Au 19.7557 24.0259 26.6493
Pd 19.7702 15.5072 12.9053
Pd 19.7715 18.3044 12.7884
Pd 19.7759 21.1583 12.7756
Au 19.7775 23.9888 12.8469
Pd 24.3937 18.3582 25.0092
Au 22.0982 16.9358 25.9044
Pd 24.3807 21.2354 25.0014
Pd 22.0968 19.7908 25.9567
Au 22.0984 22.6373 25.8788
Au 24.4009 18.3074 14.5645
Au 22.0962 16.8842 13.6756
Au 24.3949 21.2166 14.5445
Au 22.0948 19.7522 13.5719
Au 22.1093 22.6149 13.6367
Au 15.1046 18.3092 24.9942
Au 17.4306 16.9152 25.8971
Au 15.0821 21.208 24.9917
Pd 17.4027 19.7689 25.9573
Au 17.3939 22.6387 25.8717
Au 15.1485 18.2574 14.5579
Pd 17.4305 16.8646 13.695
Au 15.1173 21.174 14.5384
Au 17.4282 19.6988 13.599
Au 17.4317 22.6075 13.6525
Au 24.9569 24.4252 18.2742
Au 25.8296 22.1272 16.8816
Pd 24.9539 24.4325 21.1814
Au 25.9149 22.1616 19.7538
Pd 25.8342 22.1369 22.6389
Au 14.5302 24.4134 18.2901
Au 13.6647 22.0837 16.8568
Au 14.5282 24.4276 21.2016
Au 13.5711 22.1169 19.7533
Au 13.6535 22.1019 22.6551
Au 24.9894 15.1326 18.3166
Pd 25.8543 17.4341 16.8916
Au 24.9964 15.1371 21.2733
Au 25.9393 17.4258 19.7711
Au 25.8547 17.439 22.6918
Au 14.5648 15.0944 18.3223
Au 13.6866 17.3838 16.8808
Pd 14.549 15.1034 21.2429
Au 13.5902 17.3631 19.7821
Au 13.6627 17.3891 22.6766
Au 18.2861 25.0101 24.4026
Au 16.8581 25.8892 22.0851
Au 21.1874 25.0045 24.3921
Au 19.7496 25.9867 22.096
Au 22.6064 25.886 22.0557
Au 18.3126 14.5871 24.455
Au 16.872 13.6976 22.1375
Au 21.2252 14.5743 24.4731
Au 19.7662 13.5952 22.1652
Au 22.662 13.6854 22.1733
Pd 18.322 24.9694 15.0775
Au 16.8842 25.8623 17.3857
Au 21.2163 24.9713 15.093
Au 19.7761 25.9564 17.3718
Pd 22.6229 25.8684 17.3894
Au 18.321 14.5496 15.1117
Au 16.8884 13.6714 17.4292
Au 21.2287 14.545 15.1171
Au 19.7714 13.5755 17.417
Au 22.646 13.6585 17.4191
Au 23.5997 15.9778 23.6424
Au 23.5753 23.585 23.5705
Au 23.5913 15.9382 15.9526
Pd 23.5684 23.5865 15.9343
Pd 15.932 15.9602 23.6135
Au 15.9133 23.5974 23.5971
Pd 15.9622 15.9245 15.951
Au 15.9403 23.5741 15.9119
Au 28.944 19.738 14.0994
Pd 29.0834 19.7567 16.9116
Au 29.1199 19.7644 19.7582
Au 29.0881 19.7777 22.6139
Au 28.9489 19.7898 25.4448
Pd 10.582 19.7047 14.0567
Au 10.4287 19.7169 16.8918
Au 10.3905 19.715 19.7662
Au 10.4316 19.7263 22.6298
Au 10.5696 19.7454 25.422
Au 14.0391 28.9565 19.744
Au 16.8821 29.1043 19.743
Au 19.7625 29.1295 19.7239
Au 22.592 29.0854 19.7165
Au 25.4241 28.9526 19.7076
Au 14.1119 10.5449 19.7919
Au 16.9381 10.4067 19.7871
Au 19.7814 10.387 19.7761
Au 22.6314 10.4307 19.7793
Au 25.4754 10.5924 19.7826
Au 19.7527 14.1533 28.9797
Pd 19.7558 16.95 29.0899
Au 19.752 19.7813 29.1191
Au 19.7666 22.6316 29.0813
Au 19.7626 25.4632 28.9441
Au 19.7942 14.085 10.6251
Pd 19.7901 16.8751 10.4933
Au 19.7999 19.7063 10.4552
Au 19.8032 22.5656 10.4481
Pd 19.765 25.39 10.5344
Au 26.706 18.3215 26.4338
Au 24.4401 16.8926 27.3421
Pd 22.1078 15.5019 28.2099
Au 26.6832 21.2604 26.4431
Au 24.4312 19.8096 27.424
Au 22.1157 18.3623 28.3113
Pd 24.4072 22.6877 27.3364
Au 22.1318 21.2418 28.2985
Pd 22.1123 24.0958 28.1778
Au 26.7091 18.2681 13.1187
Pd 24.4221 16.8414 12.2271
Au 22.1263 15.4524 11.3889
Au 26.7104 21.206 13.0921
Au 24.4298 19.7361 12.1063
Pd 22.1374 18.2874 11.2433
Pd 24.4239 22.6316 12.168
Pd 22.1359 21.1733 11.2205
Pd 22.118 24.03 11.3218
Au 12.7842 18.3123 26.4132
Au 15.0887 16.8805 27.3479
Pd 17.422 15.4985 28.2061
Pd 12.7673 21.2058 26.4082
Au 15.0424 19.7819 27.4242
Au 17.395 18.3391 28.32
Au 15.0407 22.6724 27.3163
Au 17.3665 21.2101 28.3136
Au 17.3794 24.0979 28.1821
Au 12.816 18.2485 13.1039
Pd 15.1155 16.8199 12.2109
Au 17.449 15.4317 11.3954
Au 12.7941 21.1638 13.082
Au 15.082 19.6935 12.1073
Au 17.4214 18.258 11.248
Au 15.0833 22.6116 12.1708
Au 17.4134 21.1346 11.2215
Au 17.4202 24.0271 11.3057
Pd 26.4068 26.7388 18.2623
Pd 27.3168 24.4636 16.8494
Au 28.1813 22.1222 15.4591
Au 26.3996 26.7477 21.1775
Au 27.3968 24.4925 19.7286
Au 28.3023 22.1531 18.3063
Au 27.3048 24.4656 22.6317
Au 28.297 22.1791 21.1942
Au 28.1656 22.1595 24.0692
Au 13.0509 26.7319 18.2809
Au 12.1641 24.4205 16.8172
Au 11.3315 22.0714 15.4168
Pd 13.0683 26.731 21.2039
Au 12.0603 24.4701 19.7525
Au 11.1861 22.117 18.3027
Au 12.1777 24.4367 22.6663
Au 11.1828 22.1193 21.205
Au 11.3371 22.0949 24.0825
Au 26.4436 12.8072 18.3223
Au 27.3395 15.0875 16.8801
Au 28.1785 17.4038 15.4681
Au 26.4508 12.8352 21.2764
Au 27.4351 15.0758 19.8033
Au 28.3115 17.3988 18.3326
Pd 27.3407 15.1093 22.7028
Au 28.3057 17.3819 21.229
Au 28.1807 17.411 24.085
Au 13.1157 12.76 18.3094
Au 12.2063 15.0349 16.8647
Au 11.3408 17.3614 15.4429
Au 13.1131 12.7778 21.2593
Au 12.1019 15.0191 19.7891
Au 11.1989 17.3423 18.3378
Au 12.1913 15.074 22.6917
Au 11.1984 17.3449 21.2294
Pd 11.338 17.4039 24.0858
Au 18.284 26.4613 26.7075
Au 16.8392 27.3661 24.4209
Pd 15.4104 28.2041 22.1008
Au 21.2032 26.4567 26.7078
Pd 19.7353 27.4628 24.4378
Au 18.3042 28.3423 22.1259
Au 22.6089 27.3707 24.393
Pd 21.176 28.3462 22.0961
Au 24.0344 28.2066 22.0673
Au 18.3058 13.1645 26.7747
Au 16.8849 12.2106 24.485
Au 15.4706 11.3377 22.1637
Au 21.2245 13.1507 26.7874
Au 19.785 12.1113 24.5221
Au 18.3401 11.2017 22.1867
Pd 22.6811 12.2147 24.5033
Au 21.2295 11.2133 22.1902
Au 24.1039 11.3689 22.1808
Au 18.3134 26.3899 12.7448
Au 16.8686 27.3157 15.0241
Au 15.4257 28.1901 17.3615
Au 21.2161 26.389 12.7458
Au 19.7671 27.4226 15.0192
Au 18.33 28.3312 17.3364
Au 22.6392 27.3254 15.0554
Pd 21.2004 28.3184 17.3515
Au 24.0472 28.1832 17.3569
Pd 18.3419 13.0905 12.8132
Au 16.8929 12.1815 15.0935
Au 15.4892 11.3195 17.418
Au 21.2484 13.1112 12.8244
Au 19.8007 12.0868 15.0825
Au 18.3594 11.1905 17.4069
Pd 22.6811 12.1962 15.1013
Pd 21.2274 11.2039 17.4012
Au 24.0819 11.3493 17.4124
Pd 25.9377 15.9391 25.0696
Au 25.9033 23.6223 25.0522
Pd 25.072 13.629 23.6659
Au 25.0173 25.9569 23.5857
Au 23.6346 14.5088 25.971
Au 23.5903 25.0529 25.9379
Au 25.9184 15.8959 14.495
Au 25.9151 23.6146 14.4667
Pd 25.0456 13.586 15.9295
Au 25.0246 25.9319 15.8986
Pd 23.6135 14.4768 13.617
Au 23.6018 25.0204 13.5623
Pd 13.5764 15.9167 25.0732
Pd 13.5626 23.6106 25.0507
Au 14.4739 13.6123 23.6491
Au 14.4433 25.9436 23.6055
Au 15.9094 14.5124 25.968
Pd 15.8832 25.069 25.9316
Au 13.6278 15.8679 14.479
Pd 13.5771 23.577 14.4374
Pd 14.499 13.568 15.9254
Au 14.445 25.9222 15.8575
Au 15.9442 14.4616 13.6209
Au 15.9154 25.0261 13.5511
Au 31.2449 19.7084 12.6711
Pd 31.3724 19.7386 15.4674
Au 31.4622 19.7401 18.3218
Au 31.4891 19.7356 21.1853
Au 31.4409 19.7822 24.0277
Au 31.2689 19.7876 26.8546
Au 8.30544 19.6935 12.6146
Au 8.12158 19.6923 15.4445
Pd 8.07756 19.7033 18.3331
Pd 8.07458 19.717 21.1938
Pd 8.13123 19.7333 24.0381
Pd 8.28199 19.7569 26.8052
Au 12.6033 31.2676 19.714
Au 15.4396 31.4514 19.7175
Au 18.3192 31.5082 19.7123
Au 21.2001 31.4872 19.721
Pd 24.0523 31.3836 19.7251
Pd 26.8301 31.2322 19.7169
Pd 12.7162 8.25918 19.7877
Au 15.5179 8.06847 19.789
Pd 18.3632 8.04305 19.7795
Au 21.2047 8.04085 19.7796
Au 24.0839 8.10895 19.7814
Au 26.904 8.29411 19.768
Au 19.737 12.7069 31.2835
Au 19.726 15.5294 31.4282
Au 19.7365 18.3592 31.4841
Au 19.766 21.2372 31.4866
Au 19.768 24.0797 31.417
Pd 19.7685 26.8754 31.2197
Pd 19.8049 12.6656 8.34469
Au 19.7957 15.4464 8.17372
Pd 19.7848 18.2782 8.14429
Au 19.7723 21.1178 8.08445
Au 19.7817 23.9694 8.09754
Au 19.7527 26.7922 8.2325
Au 29.0492 18.3346 27.8756
Au 26.7909 16.872 28.8148
Au 24.4646 15.4553 29.6985
Au 22.1166 14.0633 30.5243
Au 29.0377 21.2668 27.865
Au 26.7902 19.8229 28.932
Au 24.4987 18.3708 29.8535
Au 22.1331 16.9324 30.6793
Au 26.7143 22.7369 28.7937
Pd 24.4736 21.2841 29.8022
Au 22.1646 19.8297 30.7206
Pd 24.4164 24.1209 29.6436
Pd 22.146 22.6908 30.6257
Au 22.1283 25.5348 30.4884
Au 29.0342 18.2417 11.6877
Pd 26.7287 16.812 10.7953
Pd 24.436 15.4064 9.92866
Pd 22.14 14.0199 9.09137
Au 29.051 21.1776 11.6517
Au 26.7877 19.6966 10.631
Au 24.4974 18.2502 9.74871
Au 22.1557 16.8521 8.90417
Au 26.758 22.6273 10.7104
Au 24.4711 21.1693 9.70884
Au 22.1565 19.713 8.85317
Au 24.4399 24.0416 9.81926
Pd 22.1516 22.588 8.87691
Au 22.1144 25.4355 9.00451
Au 10.4589 18.3134 27.8407
Au 12.7492 16.8796 28.8083
Pd 15.0902 15.4563 29.6555
Au 17.3737 14.0652 30.5096
Au 10.4457 21.2002 27.8213
Pd 12.6974 19.7768 28.875
Au 15.0121 18.3407 29.828
Pd 17.3695 16.901 30.6489
Au 12.7214 22.6428 28.7632
Pd 14.9855 21.23 29.8081
Au 17.3259 19.7763 30.7398
Au 15.029 24.1103 29.6733
Au 17.3334 22.6611 30.698
Au 17.387 25.5552 30.5227
Pd 10.5155 18.2443 11.6656
Au 12.7928 16.8133 10.7507
Au 15.1267 15.3897 9.87809
Pd 17.4695 14.0109 9.07178
Pd 10.504 21.1174 11.65
Au 12.7479 19.6856 10.6101
Pd 15.0637 18.2522 9.74668
Au 17.4186 16.8403 8.89233
Au 12.758 22.5757 10.6973
Pd 15.0485 21.1306 9.72531
Au 17.3736 19.6858 8.82857
Au 15.0582 24.0228 9.80078
Au 17.3729 22.5494 8.83976
Au 17.3912 25.4444 8.97015
Au 27.8424 29.0614 18.2555
Au 28.7654 26.7923 16.8361
Au 29.6749 24.4787 15.4175
Au 30.5279 22.0999 14.0128
Au 27.8319 29.0989 21.197
Au 28.8765 26.8219 19.7379
Au 29.8232 24.5145 18.3063
Au 30.7016 22.1336 16.877
Au 28.7778 26.8112 22.642
Pd 29.8059 24.5358 21.1974
Au 30.7339 22.1789 19.7544
Au 29.6734 24.502 24.077
Au 30.6887 22.1978 22.6259
Au 30.5254 22.1786 25.5138
Au 11.5847 29.0586 18.2532
Au 10.6642 26.7454 16.7944
Pd 9.82576 24.3876 15.3769
Au 9.02005 22.0513 13.9709
Au 11.6147 29.034 21.1885
Au 10.547 26.8008 19.7437
Au 9.63741 24.4729 18.2668
Au 8.8104 22.099 16.8608
Au 10.6972 26.7374 22.6571
Au 9.6381 24.4732 21.2098
Au 8.75983 22.095 19.7455
Pd 9.83562 24.4072 24.0785
Au 8.82449 22.1072 22.6423
Pd 9.01918 22.076 25.4757
Pd 27.8754 10.4997 18.3345
Au 28.8243 12.7462 16.9069
Au 29.6987 15.0676 15.4395
Pd 30.4845 17.3893 14.0321
Au 27.9004 10.5214 21.2371
Pd 28.8896 12.7535 19.7968
Au 29.8508 15.0416 18.371
Au 30.6685 17.3828 16.8957
Au 28.8294 12.8184 22.6868
Pd 29.8057 15.0547 21.2425
Pd 30.6965 17.3685 19.7945
Pd 29.6705 15.1116 24.0936
Pd 30.6475 17.3874 22.6377
Au 30.5219 17.4136 25.4865
Au 11.6841 10.4098 18.3166
Au 10.7381 12.6948 16.8576
Au 9.85721 14.9977 15.4108
Au 9.03819 17.3432 13.9797
Au 11.6782 10.4219 21.2594
Au 10.6149 12.6672 19.785
Au 9.67563 14.9801 18.3387
Au 8.81805 17.3135 16.89
Au 10.7327 12.726 22.6846
Pd 9.69734 14.994 21.2244
Pd 8.79899 17.3351 19.774
Au 9.83377 15.0833 24.0987
Au 8.83223 17.3509 22.6382
Pd 9.02167 17.4247 25.4872
Au 18.3 27.9068 29.0387
Au 16.8312 28.8422 26.7535
Au 15.397 29.7097 24.4372
Au 13.9615 30.5275 22.1043
Au 21.2117 27.8976 29.0345
Au 19.7519 28.95 26.7727
Pd 18.2866 29.8392 24.4708
Au 16.8518 30.712 22.1445
Au 22.669 28.8353 26.7316
Au 21.1813 29.8642 24.463
Au 19.744 30.7574 22.1428
Pd 24.0664 29.6762 24.3968
Au 22.6425 30.6997 22.1157
Pd 25.4705 30.4937 22.05
Au 18.2756 11.7068 29.0716
Pd 16.8815 10.7918 26.8007
Au 15.4551 9.84886 24.5122
Au 14.048 8.9924 22.168
Au 21.2087 11.6737 29.105
Au 19.7358 10.6362 26.856
Pd 18.3195 9.70989 24.5603
Au 16.9199 8.80279 22.2053
Au 22.6665 10.7583 26.8214
Au 21.2228 9.69292 24.5516
Au 19.7758 8.77923 22.2028
Au 24.1132 9.87229 24.5072
Au 22.6749 8.82916 22.1996
Au 25.5516 9.02746 22.151
Au 18.2897 27.8148 10.4197
Pd 16.8567 28.7337 12.6832
Au 15.4076 29.6585 14.9721
Au 13.9684 30.5201 17.3405
Pd 21.1997 27.7905 10.4258
Au 19.7695 28.8779 12.6529
Au 18.3143 29.8365 14.936
Au 16.8596 30.7124 17.293
Pd 22.6448 28.7394 12.7106
Pd 21.2225 29.7992 14.9728
Au 19.774 30.7431 17.2893
Au 24.0905 29.6555 14.9961
Au 22.6328 30.6868 17.316
Au 25.4954 30.5188 17.3553
Au 18.3518 11.6682 10.4963
Au 16.8988 10.7183 12.7703
Au 15.4676 9.80299 15.0778
Au 14.0728 8.97608 17.4254
Au 21.2697 11.6809 10.5007
Au 19.801 10.6129 12.7433
Au 18.3542 9.64582 15.0636
Pd 16.9324 8.83347 17.4124
Au 22.7084 10.7574 12.7855
Au 21.2494 9.67313 15.066
Pd 19.7872 8.80549 17.4116
Au 24.1314 9.86055 15.0859
Au 22.6611 8.84724 17.3953
Pd 25.5332 9.05044 17.4366
Au 28.2794 15.8973 26.4991
Au 28.2618 23.6878 26.5312
Pd 27.4463 13.6038 25.0891
Au 27.4054 26.0153 25.0861
Au 26.5512 11.2833 23.6885
Au 26.4761 28.3326 23.6099
Pd 25.9999 14.4784 27.4357
Pd 25.9387 25.0886 27.4187
Au 25.1276 12.1348 26.0167
Au 25.0676 27.4553 25.9709
Au 23.6585 13.0485 28.3227
Au 23.6306 26.5295 28.2757
Pd 28.264 15.8747 13.0462
Au 28.2908 23.6419 12.9844
Au 27.4225 13.5356 14.4521
Au 27.3977 25.9976 14.4232
Au 26.5247 11.2494 15.9063
Pd 26.4696 28.2737 15.8713
Au 25.9493 14.4331 12.1353
Au 25.9682 25.0744 12.0607
Pd 25.0673 12.1308 13.5899
Pd 25.0517 27.4073 13.5313
Pd 23.6262 13.0464 11.3024
Au 23.6203 26.4853 11.2085
Au 11.218 15.8943 26.5091
Au 11.2109 23.6216 26.4807
Au 12.0835 13.5209 25.1195
Pd 12.0598 25.9646 25.061
Pd 13.0358 11.2246 23.6656
Au 12.9637 28.2762 23.6035
Au 13.5447 14.4338 27.4638
Au 13.4937 25.1021 27.4086
Au 14.4541 12.0929 26.0197
Au 14.3877 27.4384 25.967
Pd 15.9135 13.0686 28.3027
Au 15.8483 26.5499 28.2833
Pd 11.2759 15.8554 13.0242
Au 11.2358 23.5604 12.9714
Au 12.1316 13.4935 14.417
Au 12.0434 25.9404 14.3544
Au 13.0523 11.1978 15.8852
Au 12.9572 28.2871 15.805
Au 13.5811 14.3861 12.1041
Au 13.5393 25.047 12.0396
Pd 14.4845 12.0736 13.5747
Au 14.4191 27.4061 13.4546
Au 15.9396 12.9953 11.2764
Pd 15.9039 26.4474 11.1896
Pd 33.4391 19.6893 11.3061
Au 33.6309 19.7094 14.0347
Pd 33.6521 19.7221 16.8576
Au 33.7439 19.7262 19.7433
Au 33.7471 19.7456 22.6291
Au 33.6841 19.777 25.5002
Au 33.4782 19.7888 28.2239
Au 6.09022 19.681 11.2307
Au 5.88659 19.6814 13.9767
Pd 5.87296 19.6916 16.8654
Au 5.8174 19.7281 19.7523
Au 5.8331 19.7392 22.632
Au 5.87491 19.7456 25.4696
Au 6.05075 19.7613 28.1758
Au 11.2198 33.4771 19.7076
Au 13.9541 33.6911 19.707
Au 16.8479 33.7614 19.6985
Au 19.7733 33.7719 19.7156
Pd 22.6786 33.6819 19.7321
Au 25.4959 33.6329 19.7304
Au 28.2021 33.4619 19.7309
Au 11.3572 6.02798 19.7847
Au 14.0607 5.84329 19.7824
Au 16.9296 5.77764 19.7724
Au 19.7967 5.77583 19.7731
Pd 22.6851 5.84679 19.7794
Au 25.5493 5.87297 19.7833
Au 28.2808 6.08427 19.7746
Au 19.726 11.3414 33.5032
Au 19.7273 14.0652 33.6855
Au 19.7439 16.9159 33.7496
Au 19.7626 19.8055 33.7618
Au 19.778 22.7016 33.7365
Au 19.7796 25.5622 33.6475
Au 19.7803 28.2634 33.4342
Au 19.8106 11.281 6.11975
Au 19.8008 13.9974 5.92365
Pd 19.7922 16.8337 5.91583
Pd 19.7738 19.6708 5.87504
Au 19.7579 22.5316 5.80913
Au 19.7606 25.3968 5.83073
Au 19.7564 28.1357 5.99449
Pd 31.343 18.3885 29.1925
Au 29.105 16.9291 30.1757
Au 26.769 15.4661 31.1084
Au 24.3931 14.0369 31.9734
Pd 22.0174 12.6473 32.7695
Pd 31.3314 21.2219 29.1756
Au 29.1578 19.8147 30.2877
Au 26.8591 18.3446 31.2711
Au 24.4777 16.8826 32.1633
Pd 22.0763 15.4628 32.9334
Pd 29.0163 22.6915 30.1125
Au 26.8125 21.3086 31.2462
Au 24.5006 19.8597 32.1881
Au 22.1209 18.37 33.0463
Au 26.709 24.1474 31.0549
Au 24.4589 22.7454 32.0975
Pd 22.1168 21.2943 32.986
Au 24.4013 25.5554 31.9123
Pd 22.1128 24.1515 32.8926
Au 22.0641 26.97 32.7456
Au 31.3218 18.2732 10.3089
Pd 29.0105 16.8378 9.43196
Au 26.7207 15.4058 8.53092
Au 24.4218 13.9844 7.66167
Au 22.1074 12.5886 6.82793
Au 31.3423 21.1191 10.2842
Pd 29.1199 19.693 9.29933
Au 26.8248 18.228 8.32796
Pd 24.4865 16.7845 7.49162
Au 22.156 15.3929 6.61432
Pd 29.0507 22.5636 9.37397
Pd 26.8103 21.1552 8.33861
Pd 24.4783 19.6865 7.42388
Au 22.1267 18.2662 6.55052
Au 26.7368 24.0037 8.41124
Au 24.474 22.58 7.38383
Pd 22.1095 21.1404 6.56328
Au 24.3909 25.4343 7.53085
Au 22.121 23.9953 6.54603
Pd 22.0367 26.8133 6.7426
Pd 8.17753 18.3693 29.1658
Au 10.4317 16.9146 30.1611
Au 12.8049 15.4612 31.0721
Pd 15.1217 14.0526 31.9135
Au 17.4226 12.642 32.7894
Au 8.14642 21.1733 29.1815
Au 10.3627 19.7743 30.2646
Au 12.6693 18.3266 31.2406
Pd 15.0468 16.8688 32.0748
Au 17.3628 15.464 32.9641
Pd 10.4311 22.6059 30.0909
Au 12.6489 21.232 31.2136
Au 14.973 19.7879 32.1832
Au 17.3621 18.314 33.043
Pd 12.7448 24.0642 31.0172
Au 14.9793 22.6892 32.1335
Au 17.3843 21.2405 33.0718
Au 15.0894 25.5426 31.942
Au 17.397 24.1509 32.9924
Au 17.4766 26.9852 32.7761
Au 8.23335 18.2535 10.2594
Au 10.5188 16.8345 9.36008
Pd 12.8563 15.4029 8.50598
Au 15.1885 13.973 7.61947
Au 17.5145 12.5805 6.80796
Au 8.22263 21.0953 10.2487
Au 10.4314 19.6843 9.2214
Au 12.7571 18.2314 8.29085
Pd 15.1026 16.8021 7.47159
Au 17.4384 15.3872 6.60429
Pd 10.4895 22.5021 9.36426
Pd 12.7404 21.1356 8.31517
Pd 15.058 19.6799 7.42155
Pd 17.444 18.2395 6.57147
Au 12.7731 23.9676 8.41021
Pd 15.0545 22.5624 7.42628
Au 17.3981 21.1041 6.50097
Au 15.1089 25.4069 7.51383
Pd 17.4232 24.0009 6.57773
Au 17.4513 26.8308 6.67762
Au 29.2078 31.366 18.3134
Au 30.1521 29.0871 16.8686
Au 31.0615 26.7723 15.4276
Au 31.9509 24.399 13.9838
Au 32.7876 22.0162 12.5814
Au 29.2002 31.3853 21.155
Pd 30.2114 29.1573 19.7395
Pd 31.1761 26.8511 18.2757
Au 32.1435 24.4996 16.8412
Au 32.9886 22.0722 15.4083
Au 30.1376 29.1161 22.6141
Au 31.2182 26.8767 21.1943
Au 32.1755 24.5292 19.7652
Au 33.0622 22.0925 18.3076
Pd 31.0374 26.7827 24.0427
Au 32.1308 24.5417 22.6535
Pd 33.0183 22.1048 21.2065
Au 31.9493 24.4656 25.5004
Au 32.9947 22.1534 24.0902
Au 32.7973 22.1056 26.9323
Au 10.2178 31.3613 18.2843
Au 9.28348 29.0508 16.8273
Au 8.39715 26.67 15.3617
Au 7.56425 24.3211 13.9421
Au 6.7581 21.986 12.5359
Pd 10.2739 31.3199 21.1293
Au 9.16547 29.1409 19.7283
Au 8.20854 26.8059 18.2457
Au 7.34346 24.4267 16.782
Pd 6.59318 22.0302 15.357
Pd 9.34668 29.0164 22.588
Au 8.21434 26.8059 21.2092
Pd 7.33202 24.4353 19.7309
Au 6.46753 22.0535 18.286
Au 8.41155 26.6926 24.0514
Au 7.3434 24.4272 22.6659
Pd 6.50796 22.0551 21.2065
Au 7.55974 24.3488 25.4741
Pd 6.5881 22.058 24.0923
Au 6.74088 22.0363 26.88
Au 29.2716 8.21414 18.3703
Au 30.1957 10.4588 16.9467
Au 31.1097 12.775 15.4864
Au 31.961 15.1132 14.025
Au 32.758 17.4087 12.622
Pd 29.2313 8.23592 21.1917
Pd 30.2554 10.4455 19.7795
Pd 31.2117 12.7115 18.3476
Au 32.1495 15.0499 16.8877
Pd 32.8957 17.4069 15.4226
Au 30.202 10.5122 22.6313
Au 31.2396 12.7406 21.221
Au 32.1755 15.0432 19.8161
Pd 32.973 17.3987 18.3326
Au 31.1138 12.8418 24.0734
Pd 32.0783 15.0861 22.6788
Au 33.0176 17.3793 21.2268
Au 31.9573 15.1513 25.4949
Pd 32.919 17.4272 24.089
Au 32.7875 17.4855 26.9163
Au 10.3456 8.10437 18.3623
Pd 9.42185 10.3937 16.9067
Au 8.47927 12.7026 15.4237
Pd 7.62872 15.0659 13.9814
Au 6.77804 17.3753 12.5504
Au 10.3365 8.11487 21.196
Au 9.24835 10.3134 19.765
Pd 8.3326 12.6293 18.2881
Au 7.38788 14.949 16.8337
Au 6.55601 17.3311 15.3929
Au 9.36363 10.4181 22.6454
Au 8.27816 12.6529 21.2248
Au 7.3395 14.9819 19.7691
Au 6.48219 17.3574 18.3231
Pd 8.47563 12.7857 24.0753
Au 7.37663 15.0087 22.665
Au 6.47647 17.3819 21.1985
Au 7.56983 15.1375 25.5099
Au 6.55001 17.3995 24.093
Au 6.74877 17.4711 26.8999
Pd 18.3624 29.2251 31.3188
Au 16.8892 30.2069 29.0638
Au 15.409 31.1183 26.7333
Au 13.9564 31.9763 24.3839
Au 12.5248 32.7956 22.0269
Pd 21.1727 29.222 31.307
Au 19.7611 30.3224 29.1265
Pd 18.2777 31.2331 26.8036
Au 16.8206 32.1613 24.4926
Au 15.3693 33.0084 22.0933
Pd 22.6255 30.1646 29.0244
Au 21.2227 31.2815 26.8157
Au 19.726 32.2062 24.4977
Au 18.285 33.086 22.0953
Au 24.0936 31.0886 26.6872
Au 22.6919 32.1521 24.4603
Au 21.2216 33.0702 22.0967
Pd 25.4856 31.9003 24.312
Au 24.116 32.962 22.0731
Pd 26.8818 32.722 21.9942
Pd 18.3275 10.371 31.3564
Pd 16.9093 9.43199 29.0733
Pd 15.4807 8.52627 26.7914
Au 14.0413 7.57201 24.4568
Pd 12.6507 6.75701 22.066
Au 21.1608 10.3165 31.4115
Au 19.7399 9.25133 29.1939
Au 18.286 8.31219 26.8945
Au 16.874 7.38475 24.5697
Au 15.4538 6.51008 22.1525
Au 22.6292 9.37479 29.122
Pd 21.2156 8.34341 26.888
Au 19.7733 7.34686 24.5607
Au 18.356 6.4471 22.1456
Pd 24.0689 8.50143 26.7722
Au 22.6944 7.39417 24.5424
Pd 21.2438 6.5069 22.1265
Pd 25.5295 7.62525 24.4155
Au 24.1398 6.54527 22.1484
Au 26.9707 6.76092 22.0868
Au 18.3229 29.1597 8.09452
Au 16.8612 30.0998 10.3711
Au 15.4166 31.0087 12.6666
Pd 13.9725 31.8937 15.0505
Au 12.5286 32.7839 17.3924
Au 21.179 29.1497 8.11335
Au 19.7618 30.2353 10.2979
Au 18.2668 31.207 12.5741
Au 16.8078 32.1342 14.9207
Au 15.3662 32.9943 17.3235
Au 22.6242 30.0825 10.3987
Au 21.236 31.1999 12.6144
Au 19.7749 32.177 14.928
Au 18.3002 33.0726 17.3227
Au 24.081 31.02 12.6941
Au 22.6747 32.1222 14.9554
Au 21.2251 33.0678 17.3459
Au 25.5228 31.9269 15.0478
Au 24.1054 32.9776 17.3706
Au 26.9228 32.7824 17.4266
Au 18.3916 10.2946 8.20996
Pd 16.9609 9.39218 10.4878
Au 15.4922 8.42521 12.7779
Au 14.0478 7.53361 15.1437
Pd 12.6664 6.74805 17.5154
Au 21.2363 10.2992 8.21733
Pd 19.8068 9.29126 10.4105
Au 18.3421 8.26401 12.695
Au 16.8868 7.34083 15.0815
Pd 15.4778 6.57165 17.4503
Pd 22.6683 9.40999 10.5013
Au 21.2791 8.28291 12.7008
Au 19.8129 7.3069 15.0822
Au 18.3582 6.48487 17.4347
Au 24.1267 8.47526 12.7873
Au 22.732 7.37102 15.0726
Pd 21.2442 6.52871 17.4484
Au 25.5682 7.6041 15.1514
Pd 24.1559 6.61692 17.4434
Au 26.9639 6.77358 17.4802
Pd 30.5942 16.0041 27.8815
Au 30.6 23.6469 27.9264
Au 29.7998 13.6167 26.488
Pd 29.7358 25.9752 26.4652
Au 28.9223 11.2827 25.0759
Au 28.8392 28.3369 25.0465
Au 27.9699 8.95022 23.609
Au 27.8873 30.6404 23.554
Au 28.3386 14.5014 28.875
Au 28.2609 25.1217 28.8594
Au 27.4786 12.1455 27.439
Pd 27.38 27.4266 27.4076
Au 26.5252 9.77379 25.995
Pd 26.4528 29.7752 25.8998
Au 25.9926 13.0527 29.7879
Pd 25.9118 26.498 29.7222
Au 25.068 10.6651 28.3373
Au 25.059 28.9 28.2787
Au 23.5838 11.6249 30.6557
Au 23.5868 27.9611 30.5858
Au 30.588 15.9026 11.6288
Au 30.6184 23.547 11.5587
Au 29.7711 13.5574 13.0345
Au 29.752 25.9776 12.9999
Au 28.9033 11.2235 14.4973
Pd 28.8276 28.2805 14.4863
Au 27.958 8.93751 15.9824
Au 27.9194 30.5896 15.8936
Au 28.2646 14.4452 10.701
Au 28.2965 25.022 10.5974
Pd 27.3889 12.1206 12.1411
Pd 27.3931 27.397 12.0866
Au 26.5166 9.80111 13.5706
Au 26.5078 29.7144 13.5265
Pd 25.9173 13.0481 9.84086
Au 25.9533 26.4642 9.70532
Pd 25.0415 10.7277 11.2936
Au 25.0513 28.8267 11.1922
Au 23.6246 11.6174 8.9928
Au 23.5672 27.8664 8.87142
Au 8.88975 15.9557 27.9122
Au 8.87828 23.5646 27.8763
Au 9.73027 13.5606 26.514
Au 9.7136 25.9377 26.4603
Au 10.6563 11.1838 25.0708
Au 10.6054 28.2861 25.0246
Au 11.6247 8.88693 23.6225
Au 11.54 30.5983 23.5508
Au 11.2107 14.4738 28.8995
Au 11.1737 25.0474 28.8462
Au 12.1033 12.0608 27.4784
Au 12.0319 27.4498 27.3991
Au 13.0466 9.74938 26.0026
Pd 13 29.7651 25.8942
Au 13.5981 13.0377 29.795
Au 13.5174 26.5259 29.7622
Pd 14.5302 10.716 28.3213
Au 14.4323 28.9242 28.2828
Au 15.9281 11.6355 30.6087
Au 15.9256 27.9801 30.6109
Au 8.98285 15.8726 11.578
Pd 8.95255 23.4456 11.5762
Au 9.80223 13.5134 12.9993
Au 9.717 25.8582 12.9361
Pd 10.709 11.1905 14.4972
Au 10.5792 28.2633 14.3798
Au 11.6447 8.86483 15.9523
Au 11.5326 30.6066 15.862
Pd 11.2906 14.4507 10.6857
Pd 11.2431 24.9222 10.6149
Au 12.1435 12.0329 12.0885
Au 12.0668 27.3804 11.9865
Au 13.0677 9.7267 13.5598
Au 12.9919 29.7419 13.4556
Au 13.6298 12.9727 9.7696
Au 13.567 26.4262 9.68488
Pd 14.5507 10.6577 11.2674
Pd 14.4948 28.784 11.1473
Pd 16.0335 11.6152 8.97828
Au 15.9181 27.8463 8.85266
