923
Atoms. Timestep: 20839
Au 9.35626 22.573 19.7686
Au 12.7498 26.5228 12.8476
Au 12.0766 6.24943 19.6432
Au 9.4781 23.3562 22.4346
Au 14.3305 26.1363 32.6147
Au 10.1652 20.692 21.9963
Au 32.372 20.6519 17.5939
Au 16.9396 10.0659 22.8487
Au 27.4678 17.0701 10.7394
Au 23.0628 15.4905 29.6727
Au 19.1377 24.976 10.1922
Au 14.9085 13.475 26.3341
Au 19.0511 9.0697 14.2205
Pd 33.1074 21.023 20.261
Au 8.46181 19.0818 12.554
Au 24.313 22.7372 13.4211
Pd 13.1942 17.9239 26.6033
Au 13.1357 17.0047 31.9493
Au 18.1322 16.4277 24.1609
Pd 23.2781 14.5822 22.5157
Au 22.6146 27.9892 21.1394
Au 31.5692 18.6549 19.378
Pd 30.6568 24.5437 18.9387
Au 9.83679 23.2303 14.9991
Au 27.988 18.0786 18.6913
Au 29.4985 27.6167 20.8136
Au 21.2601 10.2426 13.3563
Au 16.5494 24.3265 14.7854
Au 17.6927 24.3534 12.3639
Au 12.2257 19.5347 6.55358
Au 14.4269 22.0746 19.62
Au 15.9977 28.0314 31.8534
Au 21.0985 13.6206 30.4196
Au 9.75211 21.6576 24.6757
Au 29.363 26.5248 11.8102
Au 18.4376 19.9331 13.7344
Au 21.066 17.5729 16.6622
Pd 19.1509 21.0061 9.38097
Au 23.4767 24.4271 16.7714
Pd 13.432 17.3938 21.2919
Au 25.0207 34.6844 18.9177
Au 13.4893 28.6613 8.68894
Au 18.6403 10.7549 18.3781
Au 17.843 16.8343 29.4944
Au 27.936 9.11031 25.8564
Au 23.0847 26.7478 25.043
Au 10.3792 18.9616 8.34629
Au 11.83 25.0182 6.09345
Au 29.6039 20.0671 17.931
Au 22.8843 8.36234 12.1853
Au 22.9197 34.2608 17.179
Au 20.1403 8.61891 19.0043
Au 8.38213 12.6206 20.5677
Au 15.3981 16.8692 5.62818
Au 32.8522 21.8974 23.1855
Au 14.0196 11.5296 31.546
Au 31.0362 24.5685 26.4957
Au 12.7966 11.9674 14.9206
Au 22.6803 10.8582 15.5655
Au 15.4957 8.82464 24.969
Au 12.6046 16.087 10.7639
Au 30.5271 26.562 24.646
Pd 25.5043 25.0673 12.533
Au 12.5338 24.8598 29.3279
Au 25.1296 10.4502 14.3393
Pd 13.033 26.6609 20.0982
Au 21.0895 23.7579 15.6048
Au 9.44898 26.1403 26.2246
Au 31.3639 11.5955 20.0053
Au 13.6796 26.2982 17.3898
Au 29.5146 11.743 14.987
Pd 22.7023 7.99034 18.1208
Pd 15.6105 18.2169 28.2966
Pd 22.8926 16.8854 24.0056
Au 26.823 18.3088 13.4587
Pd 23.3471 30.9849 21.5083
Pd 26.341 22.8821 25.5203
Pd 21.7585 22.3252 25.5107
Au 23.1311 19.2054 32.0551
Pd 15.7556 28.9993 26.4595
Au 29.5403 10.8061 24.5312
Pd 30.2147 22.6595 17.1495
Pd 22.3518 24.7415 29.8177
Au 24.3149 13.9521 8.08318
Au 29.1345 29.4452 16.1705
Au 9.98658 14.5424 24.5891
Au 8.68427 13.0407 26.346
Au 14.8569 19.2749 22.6198
Au 13.7367 27.3035 30.3396
Au 6.70098 22.5475 19.1084
Au 9.28126 10.8607 24.8328
Au 20.4584 17.8805 23.5981
Pd 17.116 27.6349 14.66
Au 12.494 28.9952 18.3791
Au 14.251 14.8568 21.7908
Pd 24.2295 21.1861 25.4849
Au 6.29438 18.6527 17.8273
Au 7.21031 22.9512 14.4082
Au 13.817 8.28762 19.4396
Au 27.7641 8.95161 20.4935
Au 28.0224 22.9492 18.7872
Pd 15.2971 17.3551 10.8548
Au 8.47168 26.5649 17.1493
Pd 17.9364 29.8803 22.5482
Au 21.3112 12.909 12.5258
Au 15.1308 23.621 17.1692
Au 16.802 20.9619 24.0648
Au 24.5075 17.1556 14.4673
Au 19.4336 28.7236 20.5069
Au 21.5219 7.49659 26.7956
Pd 20.6944 11.2002 20.5096
Au 14.5173 28.4007 13.8744
Au 17.8825 19.4497 33.3374
Au 11.2614 8.55069 18.48
Au 19.5308 18.372 31.0023
Au 21.1468 12.7548 22.7819
Pd 16.0645 28.2011 29.182
Au 12.5045 27.9038 15.6048
Au 24.883 13.7782 18.7215
Au 13.941 27.158 25.6927
Au 24.054 20.4258 18.1643
Au 22.3196 6.13719 16.0278
Au 17.0222 29.9856 19.6579
Au 30.5427 12.389 22.5865
Au 32.9377 25.7653 19.6079
Au 15.2427 21.6069 5.85684
Au 18.7929 26.9621 12.5236
Au 26.9282 23.7232 27.953
Au 23.3466 23.4804 8.80879
Pd 23.6873 23.7655 24.5197
Au 18.0139 32.3454 13.3094
Au 26.1696 29.1746 16.1322
Au 19.7149 17.1746 33.531
Pd 14.0719 22.6183 10.3392
Au 25.1858 16.1152 25.3323
Au 8.34768 23.3795 26.2628
Au 21.9984 5.80827 24.7321
Au 17.079 14.8898 4.94293
Au 11.6047 29.6477 23.1759
Au 24.9055 6.85647 17.2085
Au 16.8985 21.7259 16.0091
Au 9.15085 27.6127 19.6587
Pd 24.2413 23.1782 21.9492
Pd 14.4799 29.5701 16.4798
Au 15.8394 12.9816 33.0601
Pd 8.92892 20.6767 14.7136
Au 19.2136 19.3136 7.2109
Au 26.4185 7.21781 22.015
Pd 19.8978 10.8765 16.0447
Au 19.2372 14.5364 28.1019
Au 14.0577 16.6055 13.1924
Au 11.7439 26.8568 27.5312
Pd 17.3144 17.2625 17.3567
Au 19.7821 10.7471 30.8675
Au 7.19585 22.4513 23.962
Au 8.77046 15.8188 26.6453
Au 11.0368 26.8128 17.8436
Au 16.4327 14.793 28.407
Au 25.103 14.7723 15.6757
Au 25.9841 18.7361 32.6356
Au 13.1793 10.9795 18.8363
Au 12.625 16.9971 15.4517
Au 23.2068 15.3111 12.6205
Au 21.5445 14.7721 8.2932
Au 7.22341 15.0547 24.5068
Au 10.4059 15.2459 17.8209
Au 25.9007 21.4424 23.2744
Au 6.37715 20.4494 13.9483
Pd 21.7988 31.4119 26.6065
Au 23.2966 31.5092 12.6629
Au 20.6907 24.8737 18.2114
Au 19.0927 25.6981 14.9396
Au 12.0647 23.7599 13.3033
Pd 27.5348 9.60463 23.1569
Au 25.5783 22.9768 10.7378
Au 24.2665 28.1869 9.97744
Pd 28.8394 22.5513 30.1167
Au 16.6934 11.9211 24.8404
Au 23.3657 19.8274 13.2321
Pd 14.9439 24.7891 30.4332
Au 19.5329 28.4783 15.626
Au 29.7856 15.0186 27.5754
Au 20.5705 10.2849 26.1808
Pd 29.3606 22.0636 25.5084
Au 29.1756 19.0131 26.5549
Pd 15.9806 24.9413 10.2188
Au 22.6464 11.8056 24.9138
Pd 19.407 29.9109 18.032
Au 24.119 6.86413 26.2821
Au 16.966 5.53686 22.0768
Au 23.2524 21.5991 11.0045
Pd 11.6226 24.9857 22.5733
Pd 26.263 15.3698 13.0719
Pd 25.288 9.56457 26.7365
Pd 15.7777 14.8201 24.0466
Au 9.17084 17.3612 19.0756
Au 17.3001 32.2163 29.4792
Pd 27.0763 16.2558 20.6158
Pd 14.3507 29.3552 23.9521
Au 24.1523 32.3311 27.9862
Au 27.3538 8.53752 17.8365
Au 14.674 22.525 25.4595
Au 16.4454 31.5653 17.137
Au 31.7844 14.954 25.6978
Au 19.3959 5.89426 25.3358
Pd 16.235 7.16856 19.2233
Au 10.042 12.0918 14.897
Au 11.3555 23.1535 10.6161
Au 15.7337 30.0089 9.77151
Au 10.3071 25.6367 10.4372
Au 22.1587 25.0627 26.9546
Au 24.7161 11.6815 9.5814
Au 15.878 21.0822 32.2437
Pd 7.64592 20.5028 25.8322
Pd 22.2741 34.4572 23.5065
Au 12.4856 10.2608 29.6054
Au 24.0201 6.57503 20.7237
Au 23.4471 18.4528 21.7137
Au 6.87539 21.0415 16.5903
Au 24.3508 12.0691 31.4877
Au 28.4694 24.6483 25.7493
Au 18.0217 31.0413 10.9137
Au 19.6706 21.1701 26.693
Au 8.12373 12.8017 23.3822
Au 11.3205 19.47 28.644
Pd 20.3997 15.3304 13.5358
Au 13.237 13.4902 23.9328
Au 16.9417 12.6888 18.9174
Au 11.7158 31.5871 18.5011
Au 12.1603 29.2358 25.7346
Au 11.7243 15.6559 22.7869
Au 31.7485 15.9888 17.8319
Au 27.9181 9.76984 13.7373
Au 27.5076 26.8015 16.3765
Au 14.4226 5.64214 20.9773
Au 11.8957 22.1355 29.0652
Au 25.2619 29.5471 12.1739
Pd 22.8823 10.6375 27.4559
Au 22.2792 19.2233 25.3073
Au 14.9405 19.98 10.1585
Au 19.8038 31.5506 29.1505
Au 28.5324 32.4945 20.9424
Au 19.3319 15.4129 31.2816
Au 24.4215 30.9314 25.6514
Au 15.5378 25.2162 19.3162
Au 14.0285 13.7747 10.5412
Au 12.8266 16.8024 6.74039
Au 30.3739 30.3055 20.6665
Pd 23.0803 21.7394 15.6233
Au 17.5164 26.8745 27.0931
Au 30.5811 21.2743 12.58
Pd 12.6275 31.7878 21.0669
Au 27.2276 32.595 23.2815
Pd 26.7282 18.7451 21.7404
Au 18.154 12.628 29.6296
Au 27.3448 24.9179 30.6206
Pd 14.7192 27.4288 10.59
Au 18.2927 28.7797 25.1977
Au 32.0648 23.3307 15.4197
Au 12.6272 14.0971 12.8453
Au 19.825 14.0526 20.8134
Au 23.1744 14.3861 32.1755
Au 9.25211 12.7258 17.5261
Au 12.8233 24.2342 18.8393
Pd 17.369 17.0137 32.2868
Au 29.5282 9.41493 16.325
Au 25.4252 14.4496 30.5634
Au 25.1124 8.81804 19.6689
Au 13.7867 20.409 27.9251
Au 28.9579 19.176 11.5288
Au 20.1518 13.0265 18.231
Au 22.9695 24.4853 11.3509
Au 17.8494 33.7181 25.1059
Au 16.4684 30.3182 14.6239
Pd 20.6125 22.9281 30.8642
Au 16.4347 32.339 26.9707
Pd 14.1398 19.5819 30.5648
Au 12.0146 12.8569 30.0575
Au 27.5023 13.8569 19.1949
Au 6.30711 17.1817 22.6418
Au 12.06 18.9431 23.4087
Au 25.5127 8.31716 12.7704
Pd 28.2835 28.5734 18.5253
Pd 14.4209 22.3503 14.8024
Au 15.8976 9.73689 18.0214
Pd 20.0982 22.7925 19.9766
Au 16.7721 14.4401 31.1472
Pd 9.69313 15.1795 20.7461
Au 25.4929 22.4663 16.7382
Au 14.2698 6.77136 26.3663
Au 25.0132 10.4535 29.3152
Au 29.3306 24.7675 28.6422
Au 16.0247 28.098 7.96342
Pd 23.5338 12.7816 29.1206
Au 18.7281 13.9881 11.74
Pd 14.4697 25.9557 8.10824
Au 11.3836 11.6082 12.51
Pd 24.4207 8.98605 22.3874
Pd 18.3156 25.6306 24.7575
Au 24.9626 24.7453 29.462
Au 10.9994 27.4972 21.7498
Au 20.9278 29.9689 22.2669
Pd 16.653 12.3538 11.4724
Au 33.6162 18.0171 17.8525
Pd 8.95956 16.5319 23.0352
Pd 23.3195 33.5621 25.809
Au 21.7704 10.1516 22.9301
Au 10.4644 8.5917 23.4768
Au 10.4045 11.5086 28.1136
Au 20.4187 20.5947 23.7525
Pd 25.2793 17.0369 28.9913
Au 34.6333 20.17 22.3989
Au 15.5351 32.8601 14.757
Au 23.5877 29.2825 18.8091
Au 18.9572 24.4581 22.3062
Au 20.3685 16.1516 26.0103
Au 16.0863 16.8879 22.2527
Pd 11.284 19.7139 25.921
Pd 17.6623 9.14483 20.2789
Pd 19.7089 28.9233 10.8829
Pd 22.9881 13.4864 10.4831
Au 9.88064 29.376 17.7523
Au 12.6123 6.84298 16.946
Au 29.8548 16.5137 19.9917
Au 19.5508 22.0832 17.2386
Pd 21.4551 30.7042 19.5729
Pd 20.5409 12.6165 9.92375
Pd 20.4652 24.713 12.7388
Au 14.1951 20.8407 17.0317
Pd 13.1277 25.2593 10.5233
Au 26.5374 11.1662 18.7326
Au 27.6601 12.3865 23.1556
Au 32.8356 23.1587 18.3413
Au 24.9677 17.345 11.7033
Au 10.8125 17.1113 25.1239
Au 25.4308 31.3805 14.3259
Au 15.0599 23.5811 32.854
Au 27.688 21.5144 21.0989
Pd 23.8731 26.2239 31.4788
Pd 15.5851 12.5191 22.5133
Au 17.461 27.2737 10.1551
Pd 16.1574 21.3208 29.3367
Au 17.6658 9.012 10.4107
Au 14.6134 33.6262 21.8449
Au 30.5768 18.6781 13.729
Au 17.7989 7.59637 23.495
Au 29.0712 11.8359 17.8436
Au 28.1541 21.8259 11.1877
Au 23.2549 29.1477 23.7036
Au 23.456 8.33101 28.5231
Au 11.649 30.4144 15.9644
Au 30.7941 20.7669 15.3219
Au 25.2593 27.3714 23.2527
Au 17.9501 16.3776 10.5243
Pd 25.4464 21.098 27.8776
Au 20.6444 16.5681 29.0691
Pd 27.1991 19.1214 28.5825
Pd 7.39656 18.2917 15.0064
Au 10.5117 24.1027 27.7126
Au 16.2132 8.15786 27.7416
Pd 25.5483 24.8736 15.1673
Pd 13.9408 24.3459 21.3292
Pd 19.5723 25.0693 29.5392
Au 13.6657 32.2062 16.6956
Au 24.8404 18.9232 23.9906
Au 10.0335 26.8582 12.8484
Au 10.1804 24.2522 17.5804
Au 21.1589 32.7548 21.7342
Au 9.23814 19.0875 24.0264
Au 18.8787 16.5194 21.4973
Au 16.9606 10.1044 12.8428
Pd 15.801 25.0535 25.9492
Au 18.8865 20.3524 19.4653
Au 18.658 19.092 25.3546
Au 27.49 29.7165 13.8283
Pd 28.9071 16.7323 12.9893
Au 24.5587 9.18815 10.3639
Au 10.5871 25.1788 20.1368
Pd 11.0222 10.7307 16.9821
Au 8.64048 14.4878 15.456
Pd 18.6837 27.6233 32.0006
Au 12.7099 14.2676 8.24694
Pd 7.94916 20.1917 19.1536
Au 9.11428 18.5862 27.0163
Au 14.5072 23.1709 28.1274
Au 22.4723 10.511 30.2979
Au 20.6086 33.6803 25.5707
Pd 21.139 35.4267 21.2724
Au 18.3537 13.6452 23.3116
Au 21.5679 33.4222 28.1612
Pd 11.7038 10.9505 23.5472
Pd 11.7735 21.3728 15.0675
Au 20.2299 6.17045 17.7202
Pd 22.4779 24.2138 20.2135
Au 21.3142 6.49536 20.2695
Au 17.8237 14.8409 14.347
Pd 10.8283 14.1414 27.8742
Au 20.8771 13.1731 15.2049
Au 18.3175 15.2333 18.8429
Au 20.8604 20.123 11.8523
Au 12.8654 18.2785 9.14737
Au 30.5844 21.7923 19.7142
Au 30.6373 22.3701 28.03
Au 28.6242 11.6913 20.6022
Au 27.6156 28.9471 27.5668
Au 29.8897 23.8396 11.9954
Au 27.5212 15.1531 29.0518
Au 17.1281 18.0646 19.9944
Au 29.9098 9.55234 19.0102
Au 18.6583 34.3536 20.5502
Pd 24.6498 25.8629 20.7932
Au 12.2556 15.0832 19.99
Au 22.349 21.2446 20.4509
Au 30.2973 21.6553 22.3933
Au 23.9182 11.2977 19.4858
Au 25.2243 10.789 24.1957
Au 12.8243 11.4085 10.1525
Pd 16.9681 24.4957 28.4051
Au 24.3692 6.1625 23.5013
Au 11.3239 9.84224 26.2222
Au 20.2831 29.3597 27.6747
Au 22.6848 26.1794 8.87933
Au 24.1195 19.0465 7.27235
Au 13.0858 12.0285 27.7271
Au 16.4163 20.5886 20.8421
Au 14.1293 31.1188 26.1581
Pd 21.3842 30.481 14.3613
Au 13.9111 14.3178 31.3459
Pd 17.7044 29.9514 27.9497
Pd 18.0735 24.269 16.9932
Au 20.2564 8.47287 11.3302
Au 30.9864 25.4787 13.8706
Pd 13.912 24.6229 23.9788
Au 24.9832 20.6373 20.8541
Pd 25.29 13.545 24.1449
Au 32.2228 23.5319 21.1061
Au 14.408 30.8847 19.078
Au 25.1173 25.6037 9.89776
Pd 18.9314 29.7027 13.3297
Pd 23.1245 21.5634 6.93483
Pd 20.6456 15.208 23.4995
Pd 13.6289 27.0012 22.7789
Au 15.2522 7.3183 16.7361
Au 28.5796 25.8186 22.9569
Au 25.9875 33.068 25.6631
Au 28.5795 12.0731 12.3665
Au 13.6965 7.63926 14.4089
Au 14.9743 12.069 16.7904
Au 13.1421 9.44295 12.1778
Au 20.7101 9.10443 28.7941
Au 18.1745 11.8061 21.2156
Au 16.8345 11.1202 31.363
Pd 12.189 22.0955 23.61
Pd 24.8018 14.8017 27.6692
Au 10.1385 24.3642 8.03421
Au 26.9778 22.825 13.5178
Pd 24.0167 30.8092 16.5603
Au 18.8636 12.7842 32.3634
Au 6.58566 19.7273 23.4342
Au 24.8263 18.6418 26.812
Au 20.8716 27.3668 23.3666
Au 27.3116 22.7905 32.3345
Au 16.5921 4.55785 19.6519
Pd 16.3469 19.1674 15.339
Au 14.6994 26.1791 28.1111
Au 13.6377 21.186 8.06795
Au 18.0282 18.9815 22.5626
Au 28.5546 27.2354 29.6887
Pd 13.3139 21.3286 12.6009
Au 8.52034 16.4171 13.3496
Pd 25.7945 25.0111 18.0929
Au 17.9312 14.8654 33.7325
Pd 18.8244 32.6329 18.1248
Au 18.6853 22.3738 28.9114
Au 7.20419 14.8189 21.7104
Au 19.7827 27.0658 8.59106
Au 27.5675 27.1076 25.2499
Pd 25.2434 13.2049 11.9552
Au 18.8151 17.3999 15.0084
Au 32.1864 14.0556 21.0544
Au 27.435 31.5657 16.2234
Au 18.0664 12.9719 16.397
Au 19.0463 31.557 20.5935
Au 21.3765 31.8475 16.9638
Au 22.7839 28.8797 26.7826
Au 16.1975 27.2913 24.2817
Pd 17.1567 10.4615 15.7243
Au 24.5942 32.9399 23.3099
Au 16.6818 20.8133 8.07679
Pd 27.9108 21.275 16.2281
Au 15.4396 8.05015 12.1803
Au 16.8561 19.2006 5.75738
Au 13.5862 14.8704 28.5439
Pd 16.5904 23.6803 23.7915
Pd 17.5763 22.7869 33.476
Au 29.625 27.0139 27.1786
Au 22.193 22.5461 18.0779
Au 21.6614 19.3731 6.2892
Au 23.5272 33.9178 21.022
Au 11.5901 15.5209 30.2668
Au 21.2887 27.6217 13.6591
Au 20.4247 33.0389 14.3894
Au 14.7584 10.049 14.4005
Au 10.9924 16.8028 27.8676
Au 22.7325 35.9028 19.2505
Au 17.8737 33.7452 15.7218
Pd 19.4937 14.6405 6.18278
Au 12.4485 22.3245 5.93951
Au 22.743 20.5108 27.724
Pd 19.9241 12.293 7.31311
Au 27.2107 10.7243 16.1184
Au 13.6677 29.7387 11.5556
Pd 20.9109 8.44387 16.1822
Au 27.2258 11.6681 25.7778
Au 16.4658 32.6806 19.7248
Pd 17.1858 26.1026 30.4654
Au 12.2672 13.1058 17.3645
Au 8.34646 25.5419 14.6875
Au 26.1059 30.5275 18.5085
Pd 19.6344 15.2591 16.4466
Pd 19.0316 31.403 26.2646
Au 28.9447 31.2035 18.4915
Au 28.0264 25.3001 13.7707
Au 12.8552 8.29906 24.6362
Au 13.2854 29.2008 21.1116
Pd 28.1467 21.4467 27.7552
Au 20.8516 20.2935 14.9653
Au 21.1265 26.7145 31.3731
Au 18.9015 31.1896 15.7039
Au 16.0941 14.7046 17.1883
Pd 14.7563 18.8351 7.33991
Au 15.1966 16.2851 19.4047
Au 7.60708 23.8035 16.8784
Pd 25.857 14.971 10.145
Pd 19.4288 24.4036 26.9132
Pd 26.1649 22.2795 30.0712
Au 17.3307 25.746 7.86397
Au 25.7704 27.6364 18.5894
Au 9.79249 28.1511 15.3104
Au 20.7466 14.5591 33.3442
Pd 12.1265 22.1684 26.3872
Pd 15.2973 16.6234 30.4855
Au 11.9867 20.562 10.2787
Au 29.3565 19.3809 20.8112
Au 25.3168 33.1385 16.6465
Au 21.7651 28.7309 9.1528
Au 32.6937 13.4509 18.3831
Pd 23.6993 11.9268 22.1922
Au 14.5988 22.0188 22.5888
Pd 21.9938 17.7334 8.45082
Au 26.3521 10.69 11.7268
Au 29.9883 9.8373 21.9021
Au 6.96798 23.9666 21.6122
Au 23.8015 27.1096 12.3274
Au 30.6256 27.1135 18.3582
Au 19.8504 5.9314 22.6246
Au 22.4419 12.0144 8.06699
Pd 21.728 16.7945 31.7491
Au 14.8355 6.39075 23.7275
Au 10.1209 7.96919 20.8619
Pd 24.7375 22.8969 19.3087
Pd 26.04 10.9955 21.3819
Au 13.6588 9.18501 27.3818
Pd 8.00694 24.9781 19.3214
Au 27.59 13.6852 16.4628
Au 27.6626 20.2426 31.0917
Au 20.661 11.8445 28.4619
Au 13.4117 9.41339 16.6411
Au 15.8928 14.81 12.3545
Au 26.4069 6.52298 19.4085
Pd 26.9778 26.9523 21.0434
Au 11.6942 9.5746 14.4828
Au 25.5812 20.5026 14.8229
Au 18.1271 7.28991 12.4901
Au 23.6249 11.1125 12.2442
Au 21.762 10.6495 18.0589
Au 15.7989 28.3834 21.6995
Au 19.4683 34.5791 23.1695
Au 15.5394 34.1057 17.3491
Pd 17.0871 28.9048 17.084
Au 15.5321 23.3465 8.0828
Au 24.6898 23.7446 31.974
Au 16.8901 14.4787 21.0667
Au 18.8793 7.58309 27.4158
Au 30.6539 15.0313 23.2323
Au 7.56541 16.4678 16.9982
Pd 22.8069 25.5484 22.6012
Au 33.6595 16.9425 25.6039
Au 19.8482 10.0564 8.94613
Au 19.51 31.8342 23.7295
Au 23.0686 32.7778 14.9464
Au 32.1433 28.2521 20.4131
Au 19.1018 22.1206 11.8681
Au 25.6295 17.2731 8.68643
Au 30.4523 16.2672 15.1507
Au 28.9277 14.2489 14.0871
Au 31.3211 25.9758 21.9188
Au 28.2446 14.5502 11.4491
Pd 8.18529 25.0108 24.1471
Pd 22.0607 10.405 10.3181
Au 20.7668 15.5516 10.7465
Au 10.941 16.3142 8.67047
Au 16.9561 23.9036 5.88053
Pd 21.0048 22.9198 10.1253
Au 17.2551 13.0575 6.93453
Au 22.2912 29.3102 11.73
Au 27.2289 16.9326 27.0323
Pd 19.5402 16.6881 8.05616
Pd 22.4609 9.13112 20.495
Au 29.0669 15.9014 17.4318
Au 28.8751 12.5543 27.6772
Au 9.69049 21.3663 27.4973
Pd 23.0002 5.40856 18.5171
Pd 21.2649 26.6923 11.0304
Au 20.6209 19.8349 32.9616
Au 24.0938 26.8594 28.0558
Au 22.6938 13.3451 17.203
Au 10.7132 29.8515 20.3921
Au 26.0024 18.4805 16.632
Pd 13.0934 12.3491 21.3934
Au 29.304 17.3633 28.8733
Pd 12.9556 24.7089 26.4903
Au 13.9726 22.3047 30.711
Au 18.1522 21.5541 5.91438
Pd 29.5418 23.0436 14.496
Au 29.1673 27.6403 14.2182
Au 20.2664 8.25495 24.4579
Au 23.4538 22.0822 29.9802
Au 25.8654 8.03533 24.5949
Pd 16.2634 26.2971 16.8312
Au 11.8469 26.5124 8.34385
Pd 23.5869 13.0741 14.2237
Au 27.2309 17.7965 24.4066
Pd 23.7463 29.1017 14.3342
Pd 23.8118 16.5798 17.3639
Pd 26.3564 12.7184 28.6662
Au 16.1255 12.628 14.273
Au 33.1601 27.9002 17.9216
Au 14.9664 12.2122 8.50642
Pd 31.5406 17.4747 24.1393
Au 16.3186 20.2343 26.7256
Au 22.871 16.772 26.9711
Pd 18.8148 19.5169 16.67
Pd 21.3888 23.0282 22.5139
Au 14.4269 13.5052 19.2862
Au 27.742 23.9884 16.3356
Pd 14.4078 19.1596 19.513
Au 13.1197 17.5411 29.273
Au 13.8847 11.0717 25.2139
Au 10.797 17.7912 21.2876
Au 13.6341 30.9669 14.143
Pd 16.9801 17.3017 12.9993
Au 18.3327 19.5291 28.5596
Pd 19.8445 18.4886 9.87855
Au 17.9609 9.43903 25.7672
Au 26.9048 26.3861 27.8707
Au 16.8394 6.45147 25.7359
Pd 12.5425 15.1732 25.9873
Au 21.2297 20.0574 17.8924
Au 26.7244 27.3133 11.4449
Au 11.3427 12.5444 25.711
Au 18.9315 22.7046 14.4982
Au 28.2329 25.7486 18.9443
Au 11.8381 27.8926 10.7259
Au 33.3048 15.1985 23.4606
Pd 15.2745 10.2742 10.5107
Au 14.6456 16.2131 8.56925
Au 15.1731 9.8038 29.7023
Au 32.0761 16.755 21.4912
Au 28.3577 20.4966 13.7472
Au 21.5982 16.4064 21.2312
Pd 17.7801 29.8211 30.6108
Au 31.3649 17.3327 26.9828
Pd 30.2199 13.941 19.1672
Pd 23.472 16.0214 9.79784
Pd 26.3384 15.9785 17.9259
Pd 26.0511 27.3992 14.0284
Au 21.3168 22.7934 28.2214
Pd 14.2007 11.8941 12.4958
Au 25.8151 20.489 12.0159
Au 16.5721 30.9405 24.6305
Pd 23.7623 32.1891 18.8981
Au 22.5624 21.8152 32.5156
Au 15.1892 18.4665 32.8397
Au 25.0694 19.5873 30.1614
Au 30.6607 13.7708 16.422
Au 16.5137 19.8709 18.037
Au 29.5466 29.052 25.3179
Au 31.372 27.7732 15.8302
Pd 12.5103 23.6732 16.2042
Pd 11.2106 16.4385 13.096
Au 29.7909 20.0052 29.268
Au 22.3756 4.88843 22.1619
Au 17.5957 19.5135 11.1134
Au 28.8076 14.339 21.497
Au 14.7071 23.8984 12.5498
Au 19.5523 17.6659 12.3867
Pd 24.6797 9.61259 17.1014
Au 34.1863 17.6634 23.0607
Pd 27.1422 14.3084 26.3512
Au 25.3102 18.1971 19.3969
Au 7.84473 21.7531 12.1417
Au 20.141 36.0236 18.889
Au 20.7882 24.5368 7.97353
Au 14.0641 9.98905 22.6773
Au 26.3811 8.1381 15.33
Au 15.2972 33.3051 24.4422
Au 20.2856 34.4752 16.7136
Pd 24.0234 23.2424 27.3464
Au 16.7825 22.2844 10.4508
Au 26.5913 31.4162 27.6111
Au 17.8272 35.1575 18.0738
Pd 9.47041 21.6496 17.2065
Pd 28.3746 20.1058 23.4657
Au 21.7017 12.0688 32.4404
Pd 8.27813 18.6524 21.4201
Au 16.0681 18.1888 24.884
Au 22.044 24.4632 32.5954
Au 18.6974 21.6906 21.9863
Pd 26.6421 12.6891 14.132
Au 10.916 18.9918 13.8899
Pd 24.9087 29.534 28.3832
Au 25.2882 25.4083 25.9812
Au 19.2373 10.9629 11.4886
Au 27.1605 12.6167 10.0456
Au 15.8523 10.9065 27.2956
Au 31.6627 19.9886 27.1998
Au 21.4197 27.0805 28.6912
Pd 21.2663 16.6415 6.02524
Pd 12.9653 18.6905 11.9997
Pd 9.30219 27.5908 23.8642
Au 22.7877 18.278 29.4389
Pd 16.5491 21.8921 13.1704
Au 17.235 22.7119 26.4675
Au 31.9804 19.4112 22.1463
Au 23.116 8.95181 25.0108
Pd 29.4171 13.4747 25.1095
Au 16.7742 35.1605 22.6842
Pd 18.8508 33.5954 27.6996
Au 24.0914 19.157 9.981
Au 8.78333 23.1577 9.97527
Pd 25.3573 28.4085 25.8869
Au 30.8005 28.6341 22.9009
Au 15.1978 16.1684 26.4474
Pd 21.2234 33.5151 19.1936
Au 20.5659 26.0778 20.8235
Pd 25.8081 13.8175 21.4402
Au 18.8374 27.7026 29.2494
Au 20.1535 22.484 33.4536
Au 26.3118 34.2905 21.2938
Pd 19.7906 8.66296 21.755
Au 22.3957 30.7055 29.1189
Au 8.95742 19.0471 16.9673
Au 23.1895 28.4222 30.2335
Au 19.2781 24.8563 32.2804
Au 21.1059 20.3942 30.0472
Au 17.1121 15.8139 7.40655
Pd 12.7362 20.2708 21.1521
Au 16.3858 14.2691 9.53663
Au 11.6999 19.3024 16.7717
Au 20.5086 31.4839 12.0241
Au 30.8086 20.0164 24.5909
Au 21.4778 15.5093 18.5508
Pd 28.0883 23.0794 23.3692
Au 15.2294 30.7278 28.7834
Au 18.2514 29.4048 8.71866
Au 7.29962 17.6721 25.1736
Au 27.4539 10.336 28.154
Pd 18.7692 12.099 13.8351
Au 13.9167 20.0522 25.0648
Pd 10.5061 21.4024 12.5694
Au 26.869 20.2038 25.7001
Au 27.253 17.4164 30.7359
Pd 16.5733 23.2676 21.1454
Au 25.967 24.8131 23.3911
Au 15.8646 26.3079 12.7075
Au 9.30653 10.5562 22.0676
Au 21.7241 17.7296 14.039
Au 18.558 17.1468 5.51849
Au 14.1354 25.4654 14.8818
Pd 20.536 29.2555 30.5253
Au 13.7675 33.5016 19.2651
Pd 16.8513 25.555 32.9946
Pd 19.2943 11.0057 23.8058
Pd 22.2811 31.7541 24.0033
Pd 13.7949 16.8433 24.0724
Au 17.7081 11.6097 9.1481
Pd 22.9215 14.4705 25.1879
Au 12.6756 7.55021 22.0027
Au 15.4585 19.501 12.7842
Au 10.6113 13.1081 22.3488
Au 22.9571 25.2062 14.0867
Au 13.6467 19.4086 14.7074
Au 22.2242 13.9354 6.04347
Pd 27.88 28.5566 23.096
Au 9.6271 15.7531 10.9521
Au 24.2709 27.1444 16.1958
Pd 25.1728 21.1706 32.3587
Au 30.7845 23.9289 23.8042
Pd 13.4287 15.4945 17.4945
Pd 22.1774 7.50581 22.675
Au 15.618 31.528 12.2487
Au 18.3986 11.9428 26.9517
Au 10.7388 24.1531 24.9448
Au 11.5906 26.762 24.6294
Au 20.6677 19.2167 21.2162
Pd 17.85 17.0406 26.8842
Au 19.1215 22.8501 24.5325
Au 23.2568 26.3601 18.6502
Au 11.3348 14.5265 15.2523
Au 27.6835 29.9211 20.8287
Au 26.8755 19.5388 9.75241
Au 23.2875 19.0291 16.0059
Au 26.7029 24.124 20.8775
Au 31.5073 11.2332 17.2552
Au 21.5231 26.4821 16.1823
Au 14.1861 14.3611 15.0896
Au 15.4279 10.8132 20.4383
Au 22.5238 18.1357 19.1834
Au 7.83307 14.6284 18.8725
Au 15.2453 15.6972 33.219
Au 6.66998 16.879 19.9165
Au 31.1365 29.6787 18.0833
Au 23.5124 8.23794 14.9244
Pd 16.6247 7.90958 14.6372
Au 8.63608 26.0581 21.7982
Au 29.9561 25.4115 16.2814
Pd 20.2805 27.0308 26.1662
Au 12.1458 17.558 18.7768
Pd 11.8271 22.7305 20.9183
Au 9.24607 20.5235 10.2168
Au 21.9935 29.1241 16.5802
Pd 25.6666 30.3153 23.1847
Pd 16.7828 19.0701 30.7028
Au 27.6347 24.6977 10.9086
Au 12.7605 23.808 8.23841
Au 14.8698 14.3387 6.60533
Au 10.9476 12.6217 19.6663
Au 22.4352 13.4649 20.1616
Pd 14.5085 18.0343 17.1425
Au 21.831 20.3897 8.97317
Pd 21.1201 27.8427 18.7341
Au 23.7057 16.2627 6.96849
Pd 22.4054 15.4277 15.3903
Au 10.7801 21.7117 8.08786
Au 33.6945 15.8286 19.5803
Pd 15.9668 35.18 20.0624
Au 25.0658 21.288 8.70277
Au 16.6131 28.9732 12.1192
Au 18.6323 6.4349 20.0727
Au 7.48028 21.3654 21.5196
Au 21.6406 22.3679 13.2058
Au 15.7667 16.5424 15.256
Au 17.4548 5.64253 17.3668
Pd 17.1459 22.4207 18.7171
Au 33.4055 19.6032 24.8513
Pd 20.2872 13.2427 25.4692
Au 21.8805 14.1614 27.551
Pd 25.7471 31.8196 20.8672
Au 29.1384 17.2768 22.551
Au 17.1972 23.4183 30.9766
Au 22.1978 17.8056 11.3759
Au 10.5948 19.8153 19.3892
Au 27.3794 16.289 15.3225
Au 20.976 24.8512 24.4965
Au 19.6842 17.6862 18.9924
Au 9.47908 10.3773 19.3294
Au 20.5295 21.931 7.157
Pd 25.1468 28.9368 20.9576
Au 18.3609 27.1939 22.5065
Au 18.9855 6.47367 15.2338
Au 14.3754 5.36024 18.3305
Au 13.5309 28.8187 28.0358
Pd 31.2564 18.3541 16.5772
Pd 28.6862 18.5776 15.7576
Au 18.1333 8.24782 17.1366
Au 18.3297 23.258 8.18548
Pd 20.8047 29.5618 24.9465
Au 20.6297 18.6447 27.3958
Pd 29.4217 23.9896 21.1635
Au 24.5157 16.8414 31.6062
Au 17.2668 32.6623 22.4533
Au 26.7543 20.5392 18.6296
Au 24.715 12.3856 26.5654
Au 21.044 7.22088 13.7208
Au 11.2039 13.6304 10.4909
Au 27.3011 30.4992 25.2343
Au 16.1143 25.7256 22.0563
Au 34.1093 18.4241 20.4265
Au 9.91091 16.9703 15.5943
Au 18.3082 24.7792 19.6566
Au 14.3266 24.2826 5.87141
Au 5.83436 19.3202 20.656
Au 32.1145 22.1933 25.7124
Au 17.6758 14.3953 25.9162
Au 27.0638 33.0837 18.7532
Pd 18.028 9.94688 28.8326
Au 32.5828 25.4843 16.8931
Au 15.2241 12.5907 29.4597
Pd 17.358 27.215 19.8243
Au 15.0611 28.1364 18.8768
Au 29.229 30.8588 23.1184
Au 11.6493 29.1005 13.3309
Au 15.5891 7.9833 21.7059
Pd 10.5471 18.2258 11.0118
Au 24.1229 15.8823 20.1716
Au 11.967 21.7679 18.2147
Pd 9.87831 13.9831 12.9612
Au 9.3216 24.0966 12.4997
Au 11.7867 9.98341 20.94
Au 25.872 27.4868 30.103
Pd 25.0412 12.2278 16.5108
Pd 27.4792 15.1198 23.6908
Au 18.6265 21.096 31.3866
Au 23.0513 20.9277 23.0825
Au 29.3408 16.3489 25.3291
Au 18.8527 26.8451 17.64
Au 25.3048 16.4347 22.6233
Au 11.0392 25.6934 15.139
Pd 15.2674 31.0148 21.8322
Pd 13.3173 31.742 23.6291
Pd 18.8909 14.2556 8.87056
Au 17.076 18.2008 8.67276
