561
Atoms. Timestep: 20000
Pd 11.1111 18.2998 10.4999
Au 7.30101 10.4131 18.1851
Pd 6.12634 19.3723 14.6243
Au 8.24296 5.6974 10.4947
Pd 9.65579 10.9567 17.1622
Pd 10.8522 8.28475 23.4058
Au 7.19966 21.9273 9.57116
Pd 6.91015 19.6297 8.64814
Au 5.50162 19.6515 19.0143
Pd 5.57863 15.5942 22.3769
Au 12.288 7.2746 21.1545
Pd 8.74461 17.709 24.0685
Au 7.31391 10.2764 9.1251
Pd 4.83399 16.7439 15.1656
Pd 5.24884 11.1783 19.6152
Au 8.25294 21.0732 6.98681
Au 4.14578 12.0415 14.8426
Pd 18.7659 10.0038 7.17602
Au 22.0497 11.9262 5.00227
Pd 15.7422 18.9031 7.28001
Au 9.05821 4.67538 15.6603
Pd 17.675 12.2943 6.63013
Au 7.4952 21.5389 19.6923
Pd 10.1391 11.8735 12.6503
Au 4.40787 20.9245 13.0432
Pd 17.7156 16.4028 19.2803
Au 10.2674 17.2121 18.7407
Au 15.4436 18.4369 3.86823
Pd 16.0797 9.96291 6.73103
Au 14.9729 11.1324 26.3348
Pd 7.41763 18.466 16.8308
Au 10.8435 20.062 23.9584
Pd 11.541 19.8039 18.9909
Au 9.43325 18.8172 26.479
Au 9.21007 14.6979 26.7779
Pd 14.7782 21.4093 18.3966
Pd 14.7691 7.72264 19.0885
Pd 9.24022 8.62072 18.5028
Pd 19.7474 11.0938 18.6939
Pd 12.0868 9.38854 19.2178
Pd 11.6372 21.4333 11.3665
Pd 9.56216 16.6857 12.2359
Au 10.2831 14.4536 13.2488
Pd 14.4989 9.77426 17.5144
Au 20.3453 17.2177 24.9831
Pd 11.1979 11.976 14.9135
Au 15.3037 3.25716 15.6201
Pd 15.211 13.8848 6.43881
Au 12.6399 4.06076 15.5163
Pd 15.6179 6.28878 7.96572
Au 9.88806 15.8613 9.43967
Pd 5.53867 13.9724 16.271
Au 9.71144 17.5248 16.0849
Pd 22.2472 16.516 23.2192
Au 8.58152 15.2779 17.7994
Pd 13.5627 16.3016 27.3465
Pd 22.5225 7.84484 12.5737
Pd 18.9573 18.6875 20.2243
Au 16.8608 9.36506 4.47979
Au 6.92262 21.9 14.3868
Pd 16.4517 9.28122 10.7362
Au 6.21779 9.81245 13.9687
Pd 10.3262 13.6464 5.89127
Au 4.61912 18.5283 12.7411
Pd 14.5305 22.3843 5.36447
Au 14.2013 18.7399 17.9886
Pd 12.9348 11.2564 8.60072
Au 3.58305 15.5566 13.0593
Pd 7.9229 13.5109 12.7239
Au 5.75981 14.9955 8.77987
Pd 10.1652 11.0159 19.9723
Au 17.2446 17.2174 14.4042
Pd 17.8046 17.1678 23.8013
Au 4.41918 12.0627 17.4194
Pd 6.12358 16.5844 12.3846
Au 15.9532 5.55904 19.0584
Pd 7.09805 12.1398 15.2268
Au 3.33362 15.7097 17.4211
Pd 5.0704 23.5374 14.4656
Pd 23.7994 12.6052 10.5728
Au 13.0026 2.9991 10.531
Au 8.54194 16.1453 5.2064
Pd 13.7924 8.76133 11.0006
Au 7.99373 18.6676 6.17354
Pd 10.6587 18.1736 8.11139
Au 8.35189 14.5727 7.57912
Pd 9.66445 20.329 9.17536
Au 6.86012 24.6071 15.8368
Pd 16.3284 14.7693 20.4076
Au 8.00567 24.6827 18.1409
Pd 9.52821 13.479 10.208
Au 13.6892 23.4312 22.6902
Pd 12.3345 22.5224 18.6573
Au 6.27966 7.32778 12.5227
Pd 11.3786 15.4277 15.869
Au 10.4156 10.2915 24.7775
Pd 9.51822 19.3114 11.9894
Au 25.7016 18.1463 20.7706
Pd 4.89847 21.116 16.149
Au 7.52932 15.1909 24.7122
Pd 13.9349 13.35 27.4234
Au 11.8463 5.16937 5.81841
Au 13.1636 15.2368 5.90994
Pd 11.6234 20.4746 13.8197
Au 18.0583 26.2041 16.4994
Pd 19.932 15.527 12.6964
Au 5.32492 18.4115 21.6979
Pd 7.72205 19.4419 21.1919
Au 5.94112 22.4433 11.7059
Pd 24.9355 19.3622 10.1826
Au 7.78974 13.6989 22.3087
Pd 11.7357 20.3586 26.3523
Au 12.2142 23.9062 9.56599
Pd 18.3015 24.6861 18.8214
Au 9.77021 15.4039 23.276
Pd 23.6266 10.9967 19.1424
Au 17.6859 26.6983 20.4539
Pd 8.8587 15.2675 20.6386
Au 14.5347 13.1153 24.5819
Au 12.8049 26.2464 16.1986
Pd 9.62642 13.5142 15.9313
Au 11.7407 23.7416 15.9308
Au 7.80281 24.1069 13.3475
Pd 11.6935 22.5167 24.5362
Au 7.35618 22.5102 22.0288
Pd 9.91723 22.3702 13.902
Au 8.92539 23.2272 16.1119
Pd 18.4664 13.8163 14.3677
Au 16.2265 26.338 18.4956
Pd 9.04881 19.7264 18.4808
Au 1.82565 16.932 15.5458
Au 2.97121 14.2285 15.3556
Pd 20.0299 22.1314 24.2768
Pd 13.9102 20.0528 20.255
Pd 5.45026 19.8338 10.774
Pd 10.5822 13.4505 21.7264
Pd 12.0136 12.0082 10.8675
Pd 12.7001 7.44765 12.7361
Pd 21.9009 9.5803 17.0903
Pd 21.3087 9.92825 20.4954
Pd 8.18403 11.489 11.0466
Pd 11.7751 5.75254 10.0555
Pd 20.5553 8.66161 5.8246
Au 13.6974 5.33997 11.1975
Au 14.2835 4.72568 5.89243
Pd 5.5587 13.8612 13.7439
Au 24.2062 16.5987 13.5816
Pd 11.9407 21.5225 8.82056
Au 16.7338 8.84889 22.1535
Pd 6.3399 7.99637 18.4397
Au 5.16889 9.97602 16.5111
Pd 13.2704 25.4276 18.4832
Au 10.019 13.2014 18.7212
Pd 11.21 8.3524 14.6669
Au 9.9061 7.02438 16.6687
Pd 11.8884 16.5404 23.4118
Au 16.1116 14.5101 27.0719
Pd 7.56841 21.2316 16.7661
Au 14.9647 8.78243 8.65951
Pd 19.0505 22.4107 19.683
Au 3.91179 14.1259 19.4792
Pd 25.4701 12.159 13.0842
Au 13.5814 13.7095 8.51377
Pd 19.2779 14.6231 23.7539
Pd 18.7371 19.4512 7.39578
Au 16.8162 4.76547 6.47846
Au 3.37587 19.2037 15.0065
Pd 7.17665 20.3021 12.2697
Au 16.1467 20.9778 15.4385
Pd 20.8866 18.1971 15.6472
Au 5.72393 23.0197 18.2141
Pd 19.8472 17.4311 10.7513
Au 5.24457 13.0544 21.4112
Pd 10.9287 13.1464 8.17436
Au 15.7479 11.9235 8.49905
Pd 18.014 15.1612 17.0922
Au 9.82112 5.56117 8.42569
Pd 10.2983 6.77825 12.1396
Au 9.4046 11.2277 4.51253
Pd 4.96616 21.2467 20.9057
Au 6.35703 5.97649 14.6242
Pd 7.78882 17.2844 14.3353
Au 5.6781 17.3327 10.1498
Pd 7.79276 14.9349 14.9324
Au 14.3403 3.52695 13.2397
Pd 10.7165 21.0886 16.5988
Pd 7.66891 17.0236 8.20539
Au 13.0957 17.2506 3.90009
Au 13.4559 12.0708 6.13822
Pd 7.16207 13.0795 9.45793
Au 22.572 19.0493 9.90853
Pd 7.61327 15.2108 10.7519
Au 7.9052 7.03615 20.249
Pd 13.8879 15.439 20.4698
Au 9.44428 3.29043 13.278
Pd 12.7495 13.9421 18.7098
Au 8.70261 21.3014 25.0835
Pd 20.2834 17.9952 22.1605
Au 21.0952 22.2222 21.6131
Pd 19.3563 13.9051 19.442
Au 15.2478 12.6686 21.4796
Pd 16.1825 15.1974 22.7434
Au 13.2167 10.2992 13.5027
Pd 14.2279 8.03479 22.8856
Au 7.42423 8.68506 16.165
Pd 6.8899 19.8509 23.3188
Au 9.62209 12.1444 26.5583
Pd 18.691 22.1045 11.1471
Pd 19.2327 10.0318 9.87592
Au 20.0079 18.9105 5.44387
Au 18.5519 12.6399 9.42756
Pd 15.0808 16.0743 10.27
Au 14.2685 13.342 3.584
Pd 8.87856 9.20542 7.62321
Au 12.9843 5.51615 19.1962
Pd 6.89538 17.6039 19.2466
Au 19.3805 26.7444 12.1714
Pd 7.47098 12.2463 20.0647
Au 17.3908 17.3815 8.76218
Pd 11.7421 24.1605 20.6049
Au 10.3658 18.2623 21.6114
Pd 9.14393 19.5934 14.7831
Au 9.26975 8.13277 10.2334
Pd 13.6694 21.121 23.9138
Au 17.4207 10.9831 23.7764
Pd 11.3124 15.558 20.5427
Au 18.0976 18.6916 26.3894
Pd 5.53118 13.2392 24.2726
Au 11.2724 14.7221 28.1244
Pd 16.2629 17.1221 16.8357
Au 10.3636 24.6934 11.4797
Au 8.62722 12.0499 7.16094
Pd 14.6628 22.952 7.87764
Au 14.3922 25.6144 20.717
Pd 21.767 22.1636 8.26321
Au 17.0837 12.1235 4.11798
Pd 16.8232 21.0756 8.52237
Au 9.48727 22.5244 23.1679
Pd 9.72891 23.1761 8.76797
Au 11.6587 25.9221 13.6973
Pd 15.77 23.8323 18.5489
Au 10.5099 20.227 6.24965
Pd 5.71551 11.682 12.326
Au 19.1721 22.4306 8.65462
Pd 13.1092 17.8369 6.57818
Au 13.4945 19.3169 11.936
Pd 19.5072 11.8981 22.7712
Au 22.6536 6.73613 14.9988
Au 18.5934 19.7654 24.193
Pd 21.52 19.5964 20.6213
Pd 21.2212 14.2733 8.6061
Pd 15.9938 12.2421 13.3548
Pd 15.6032 7.14487 16.6093
Pd 5.16165 14.3962 11.1113
Pd 12.9942 16.3682 18.2124
Pd 11.182 17.8315 14.0342
Pd 8.59171 7.60308 14.169
Pd 18.0041 13.3808 21.8076
Pd 14.7185 11.9121 18.9211
Pd 15.6876 8.48972 13.1714
Pd 10.6541 6.69041 19.0673
Pd 15.3468 15.9406 4.20967
Au 13.7621 8.24365 14.9
Au 15.7514 9.23735 24.6115
Pd 13.7294 20.3178 6.87746
Au 22.8823 14.3356 6.7167
Pd 14.5736 9.73889 20.5724
Au 23.0358 16.6441 7.92792
Pd 9.71221 8.42964 21.2366
Au 14.6459 6.27703 21.1849
Pd 10.9519 10.6587 6.55178
Au 27.7556 12.2449 11.7122
Pd 10.0093 10.8641 9.38861
Au 11.3256 4.75036 17.2674
Pd 11.699 9.7128 4.3133
Au 27.5544 16.7999 19.8605
Pd 14.0686 4.16961 8.5452
Au 21.9877 9.84169 22.8036
Pd 16.1694 5.91133 12.8257
Au 5.94275 10.9142 22.6314
Pd 22.483 15.9031 15.559
Au 7.58488 17.1483 21.9355
Pd 20.0153 7.17625 10.7535
Pd 15.3849 7.47985 5.80932
Au 17.6007 7.37259 20.1542
Au 25.6201 13.1006 8.11659
Pd 19.8218 13.3518 16.8145
Au 13.4147 9.26259 6.61792
Pd 11.1867 3.69397 8.13236
Au 4.3573 16.8776 19.5836
Pd 13.8247 11.3972 15.681
Au 16.6166 14.5613 8.81376
Pd 10.6084 16.6965 25.9842
Au 7.68174 24.2277 10.5336
Pd 19.9773 11.805 14.0734
Au 7.34398 9.5826 20.6523
Pd 15.2276 15.1306 18.0664
Au 7.66773 11.3359 24.6761
Pd 15.2244 18.5858 27.1651
Au 11.864 9.98112 21.8597
Pd 22.969 14.7325 19.8897
Au 5.94991 17.6762 24.3124
Pd 9.70516 5.27795 21.0464
Au 19.3835 8.59463 18.6461
Pd 14.0155 16.1357 24.7178
Pd 17.3117 14.4053 5.30655
Au 20.7275 23.0522 14.0862
Au 18.2336 7.62691 12.0483
Pd 25.9754 11.1679 9.91859
Au 14.3939 13.7637 11.1572
Pd 23.2369 19.7498 12.2227
Au 13.9678 21.6891 13.4784
Pd 14.6092 22.5422 20.7084
Au 25.8218 18.9317 13.0142
Pd 11.8533 14.324 10.8412
Au 11.9181 21.7115 21.7976
Pd 19.2347 15.7351 4.06972
Au 4.48316 18.3453 17.1207
Pd 14.2533 20.9737 9.60986
Au 15.8329 21.2983 23.0062
Pd 21.8258 12.1168 23.6767
Au 8.91582 11.1465 22.1577
Pd 23.7039 21.2392 21.2267
Au 24.1119 10.6695 22.0265
Pd 17.9199 7.76616 15.0757
Au 24.4922 15.7601 21.7878
Pd 25.6494 13.25 18.3497
Pd 11.0437 9.56775 11.7735
Au 8.18678 5.29528 13.0951
Au 17.668 11.6402 11.6755
Pd 10.6007 7.66954 6.1644
Au 22.7028 23.276 16.7635
Pd 18.8205 14.8233 7.38995
Au 10.7979 17.7579 5.20078
Pd 9.5637 25.5731 15.5835
Au 9.59461 22.4662 18.6503
Pd 9.02756 22.0405 11.5849
Au 6.33901 16.2649 17.0425
Pd 18.9125 20.9445 21.8703
Au 18.141 10.5714 20.7701
Pd 15.016 17.3486 12.8377
Au 11.6289 18.4607 27.6705
Pd 14.0054 16.736 16.0996
Au 16.7418 20.6562 25.6705
Pd 15.8732 25.0889 11.6327
Au 24.5204 10.003 17.0767
Pd 14.3648 10.9493 22.9884
Au 25.3627 20.2297 16.9325
Pd 19.1377 20.4384 15.7923
Pd 17.0339 23.4889 20.8972
Au 28.0579 13.5153 17.115
Au 19.5528 11.0691 4.80728
Pd 20.4735 17.4321 8.18269
Au 16.9265 14.4715 2.89025
Pd 8.41379 17.8673 10.3997
Au 11.3626 15.1017 3.80502
Pd 17.4853 22.0755 17.7368
Au 13.0421 19.707 4.61483
Pd 17.4399 14.1633 11.7786
Au 15.5029 25.7139 15.9518
Pd 15.7781 24.6431 22.911
Au 18.7306 15.1566 26.0616
Pd 16.92 19.384 17.8623
Au 13.451 21.0993 16.1048
Pd 12.5197 17.8852 20.3792
Au 22.4851 20.157 16.8524
Pd 12.1245 14.3596 25.459
Au 22.795 11.9245 16.0236
Pd 11.783 9.53006 16.4335
Au 14.1834 20.8624 26.3084
Pd 16.8696 9.67451 18.3133
Pd 8.01686 9.37086 12.2537
Pd 12.7497 7.20518 17.044
Pd 8.52888 4.35316 18.8451
Pd 13.8077 3.76078 17.8339
Pd 24.0231 19.148 14.6972
Pd 19.0175 4.72681 11.6191
Pd 21.7633 12.6252 18.5404
Pd 10.7448 15.7586 6.66722
Au 17.6682 19.4427 4.06886
Pd 24.2254 10.0946 14.1287
Au 16.963 3.14375 13.716
Pd 14.1678 5.87942 14.7055
Au 21.3137 16.1304 6.10253
Pd 20.8123 5.03278 14.5596
Au 20.8477 5.4038 9.13895
Pd 7.58311 13.1096 17.7958
Au 27.854 10.914 17.042
Pd 21.5204 9.58823 14.4842
Au 19.8211 10.062 24.9408
Pd 9.29314 10.1944 14.3846
Au 25.2072 7.70834 13.6981
Pd 14.989 16.4965 7.65785
Au 9.7653 12.9188 24.2785
Pd 15.7768 6.48241 10.5911
Au 18.4513 5.22109 14.1428
Pd 12.8427 12.5158 20.841
Pd 20.7286 15.6767 17.4736
Pd 21.6341 10.1732 7.62435
Au 23.1139 22.2998 12.6106
Au 23.9636 21.7124 9.8799
Pd 16.1328 9.75494 15.5634
Au 17.3691 16.8531 11.9726
Pd 27.1138 15.5273 12.2866
Au 27.6945 16.3265 17.0381
Pd 24.8617 22.5652 17.9874
Au 26.4582 9.965 12.7026
Pd 20.3806 20.1973 8.83894
Au 23.585 7.03718 9.04808
Pd 16.9113 18.7198 21.7006
Au 26.1301 10.6851 19.2793
Pd 26.2574 23.1303 15.434
Au 11.7661 18.5207 16.522
Pd 24.2496 21.615 15.0396
Au 24.8179 5.67074 11.8798
Pd 19.1304 9.71479 16.3668
Au 22.0583 12.2432 21.2122
Pd 15.8931 14.0576 15.865
Au 19.175 12.6239 25.6718
Pd 17.0239 13.4962 24.6244
Pd 22.4238 13.8869 12.6224
Au 21.4594 22.6997 10.9518
Au 19.2157 5.69582 6.99122
Pd 18.8214 24.1348 12.8536
Au 18.9626 17.9629 17.0581
Pd 12.8706 6.67732 7.59895
Au 14.3334 10.4661 4.30402
Pd 15.6045 14.8497 13.443
Au 12.9358 18.5755 24.8659
Pd 25.1166 14.6094 11.8332
Au 11.9088 12.1298 4.11001
Pd 19.5002 21.5443 6.07714
Au 25.4282 15.2773 16.0087
Pd 13.9527 23.1172 11.1382
Au 27.15 14.3236 14.2986
Pd 12.0873 11.6493 17.7841
Au 27.8073 11.7124 14.5291
Pd 14.5049 17.4471 22.2025
Au 12.2236 11.7249 26.4377
Pd 13.1414 14.4505 22.5046
Au 26.479 9.28424 15.6834
Pd 25.1338 15.7852 19.2234
Pd 10.8719 5.74105 14.4538
Au 10.0932 3.50193 10.4304
Au 20.1883 13.599 5.23431
Pd 12.8832 13.0455 13.2321
Au 24.208 24.1527 14.2914
Pd 12.6791 16.8054 11.5763
Au 11.6055 8.70974 8.52368
Pd 19.9255 24.6809 10.3684
Au 12.9211 15.7585 13.8957
Pd 19.2396 15.0662 10.0071
Au 19.2075 23.9244 22.046
Pd 24.1777 14.9846 9.19977
Au 14.666 26.9187 13.283
Pd 17.3528 17.2822 5.69286
Au 15.1972 23.2464 25.0435
Pd 17.0274 5.01292 16.3764
Au 17.5833 11.9016 15.9925
Pd 21.3859 17.7277 12.9265
Au 19.3158 9.09776 22.7606
Pd 20.4827 9.71855 12.0279
Au 22.4833 21.8737 18.8204
Pd 9.35849 24.0089 20.7047
Au 17.3696 17.0282 2.947
Pd 25.766 17.8022 18.0005
Au 25.7328 21.8433 12.8581
Au 12.1084 22.2444 5.94765
Pd 17.6699 7.70772 9.35748
Au 16.069 23.3432 13.278
Pd 11.8351 4.16674 12.5735
Au 12.0312 23.1795 13.1301
Pd 20.7079 20.3399 12.0423
Au 27.5132 21.5602 17.4164
Pd 12.4024 16.0714 8.58105
Au 24.0989 4.9234 14.1309
Pd 16.3537 20.0133 13.0105
Au 27.0545 14.2133 20.1814
Pd 14.2772 23.5781 16.5294
Au 15.2841 17.6997 19.9355
Pd 27.445 20.5236 14.7738
Pd 23.8008 9.90341 11.6038
Pd 12.9275 7.31313 4.9305
Pd 22.0148 5.40515 11.8307
Au 28.3098 18.9291 17.2685
Pd 17.6403 10.0316 13.7478
Au 22.3933 25.5154 15.5326
Pd 7.4069 6.05672 17.2529
Au 24.683 16.7619 10.9734
Pd 18.0156 7.51188 5.92537
Au 26.9519 13.8327 9.88396
Pd 8.27715 8.56575 23.2692
Au 12.9235 9.41777 24.7137
Pd 17.9461 7.08929 17.5521
Pd 20.1631 13.1258 11.4813
Pd 18.2746 19.4714 11.0334
Au 20.103 26.4115 20.0788
Pd 13.5089 18.4567 9.17974
Au 15.6692 19.0638 23.8801
Pd 21.5345 11.5871 9.73116
Au 17.7882 5.05135 9.18591
Pd 24.2471 13.8355 14.5495
Au 14.523 11.0672 11.1083
Pd 21.4666 13.7754 15.0075
Au 26.4031 20.1372 19.3441
Pd 21.701 20.4078 14.3742
Au 15.8788 4.00007 10.9232
Pd 17.3556 23.6735 15.7907
Au 23.9503 9.79717 8.60876
Pd 24.0225 19.7103 18.975
Au 20.5022 7.2794 16.3224
Pd 23.358 11.9867 7.31065
Au 21.7639 20.3888 23.2971
Pd 6.48771 14.8221 19.5219
Pd 20.0146 20.1164 18.2523
Pd 18.1406 21.8809 14.0224
Au 21.608 24.8598 12.5533
Au 22.1542 16.3266 10.5858
Pd 24.9131 12.8014 21.0341
Au 17.1216 23.2147 7.24049
Pd 13.6757 18.9175 14.6695
Au 20.5555 16.3698 20.2632
Pd 12.815 19.3506 22.4811
Au 10.7063 24.8143 18.3245
Pd 21.4136 18.1336 18.0699
Au 16.6364 20.8422 20.0996
Pd 18.3442 15.9498 21.8758
Au 20.6385 25.8349 17.4886
Pd 20.952 24.0252 19.5088
Au 13.072 25.6296 11.7119
Pd 12.2467 12.2139 23.71
Au 20.4869 7.75192 8.12315
Pd 19.9125 22.9881 16.9232
Au 25.6298 12.1237 15.8972
Pd 16.1737 16.5921 25.7682
Au 21.9003 8.88829 9.89103
Pd 23.5304 17.1361 17.0589
Au 19.228 19.107 13.7216
Pd 20.4451 7.15791 13.5705
Au 16.0694 21.4031 11.0539
Au 23.6838 18.5027 22.5422
Pd 22.2497 11.6039 12.6991
Au 25.4275 7.97294 10.6725
Pd 13.539 14.0988 16.2661
Au 19.8257 25.7978 14.8422
Pd 17.4439 12.5184 18.7245
Au 20.8318 14.2069 21.6208
Pd 23.5151 24.8287 18.673
Au 20.4189 19.7728 25.6393
Pd 19.7875 15.9256 15.0757
Au 26.5274 17.8756 15.2241
Pd 23.0378 17.5441 20.5633
Au 17.0246 25.845 13.6359
Au 20.1976 12.3034 7.44035
Pd 15.803 18.6714 10.1258
Au 16.7186 23.3848 9.67065
Au 16.8053 21.2302 5.64764
Pd 9.91113 20.8345 20.8372
Au 23.3081 14.3437 17.2607
Pd 13.9071 24.6541 14.1759
Au 17.5089 22.891 24.0614
