665
Atoms. Timestep: 20576
Pd 15.1614 18.6926 10.9019
Pd 7.61729 15.3184 20.9089
Pd 19.8604 7.89277 18.7972
Pd 16.7884 15.6458 19.218
Pd 10.6928 16.9278 22.2631
Au 10.3604 12.5192 3.56938
Au 19.1197 15.3695 8.86975
Pd 7.83671 8.18839 15.4902
Au 5.69419 7.51655 10.4465
Pd 19.8427 11.2118 11.5421
Au 20.5798 4.44246 10.4301
Pd 6.14217 13.7007 11.8868
Au 15.2424 11.2537 13.3864
Pd 11.6803 16.4929 26.6495
Au 16.708 23.5093 7.09951
Pd 11.66 14.7579 7.53531
Au 11.6558 4.56612 16.9624
Au 13.4562 2.58509 17.7769
Pd 8.6683 4.29853 13.7966
Au 22.0202 6.23916 19.3552
Pd 8.82454 14.1684 8.01613
Au 11.5572 3.47036 19.4685
Pd 18.1257 22.9681 15.3312
Au 12.0503 24.1861 23.904
Pd 7.89029 18.0637 17.2964
Au 24.9388 13.7477 22.9829
Pd 23.9896 20.9497 19.9974
Au 5.31092 12.7417 14.2718
Au 10.3669 8.61284 20.141
Pd 17.1648 11.2935 4.12803
Au 9.36577 15.7579 25.277
Pd 7.4874 6.5905 17.628
Au 20.1383 14.9541 3.75719
Pd 8.68215 9.38007 6.58928
Au 24.5445 16.5193 22.1933
Pd 17.7866 17.2284 21.2656
Au 22.0818 9.19463 20.6931
Pd 21.4071 22.7479 18.4467
Au 11.8736 7.5949 9.1759
Au 8.10056 13.9259 3.60101
Pd 10.7062 8.86975 11.717
Au 25.6512 12.7911 7.55268
Pd 9.09193 19.015 5.13573
Au 4.35594 22.6191 11.3773
Pd 11.6375 23.1512 16.9187
Au 5.45382 10.7027 19.6415
Pd 11.248 16.0185 14.1374
Au 13.417 12.4181 23.817
Pd 10.8482 17.0161 11.7547
Au 24.8503 14.8931 8.94456
Au 25.519 18.2853 11.3378
Pd 4.60933 12.8985 9.6955
Au 25.5662 10.8331 11.9408
Pd 6.95754 11.874 10.1627
Au 6.4267 10.1193 22.1541
Pd 12.9912 21.5259 12.5282
Au 9.55702 14.5731 22.7453
Pd 4.68723 18.036 10.482
Au 4.01922 19.1007 14.8195
Pd 14.709 23.642 9.0915
Pd 21.9472 18.8016 9.6663
Pd 15.4631 16.1205 11.8215
Pd 15.4986 13.7053 14.6835
Pd 22.7005 24.8969 16.8381
Pd 17.9401 7.4766 16.5925
Pd 14.1287 4.69468 15.8394
Pd 15.5545 6.66029 17.9664
Pd 8.73691 17.725 20.5191
Pd 6.47511 10.0259 8.15271
Pd 19.2275 5.9092 14.6209
Pd 15.9623 24.1321 22.0872
Pd 6.46388 14.8196 9.24662
Au 19.6323 25.3946 10.7885
Au 13.2514 28.1564 13.1875
Pd 22.8636 12.5264 7.3687
Au 12.6 22.9645 7.268
Pd 12.2276 19.3563 11.0449
Au 10.822 13.7682 26.3969
Pd 11.7507 11.9961 16.4557
Au 8.77482 9.02354 17.9558
Pd 6.2561 15.9007 16.7318
Au 7.86992 26.8479 17.4495
Pd 19.7564 11.5517 14.3559
Au 8.69372 20.133 15.572
Pd 14.1954 15.2627 4.54498
Au 18.5063 13.6824 18.918
Pd 15.122 19.1727 16.9478
Au 21.0638 10.244 25.1227
Pd 13.0819 10.689 5.71302
Au 9.61279 16.562 6.92171
Pd 9.439 13.3774 17.3952
Au 17.5651 7.45404 21.363
Pd 6.83087 19.4972 20.156
Pd 14.237 22.6412 19.8712
Au 15.9276 21.2667 21.9021
Au 20.2241 21.0455 16.2385
Pd 9.27042 22.052 17.3384
Au 9.28559 4.49821 18.2907
Pd 11.745 25.3511 15.3434
Au 3.9712 16.4683 15.4568
Pd 13.9669 7.8347 24.041
Au 14.3076 14.5524 19.4313
Pd 10.7464 11.8519 6.68554
Au 19.5934 20.4303 18.8658
Pd 15.2807 18.1478 14.6514
Au 17.4131 12.107 15.5193
Pd 21.5968 16.5565 21.8883
Au 10.3836 10.2131 22.3984
Pd 9.86865 23.5436 19.5374
Au 27.3189 14.3668 13.2145
Pd 6.93911 22.5413 16.0018
Au 14.2121 3.20071 20.2966
Pd 12.9968 21.6216 9.67668
Au 10.3901 11.3055 18.803
Pd 22.933 18.4548 20.4468
Pd 17.2777 24.937 17.2552
Au 11.7117 16.0614 5.11219
Au 22.3276 10.3717 5.80879
Pd 9.45289 11.2243 11.2353
Au 17.2077 3.16511 20.1063
Pd 6.71974 18.911 12.1663
Au 11.1808 17.9719 24.573
Pd 22.3027 18.1912 12.3736
Au 6.47349 24.5128 20.1478
Pd 10.4509 10.1463 4.6925
Au 14.5033 23.5856 25.5314
Pd 13.2913 23.0923 14.7594
Au 13.0394 19.15 26.1064
Pd 15.3009 18.7859 6.59622
Au 8.69357 25.9689 19.9027
Pd 13.1041 18.0481 22.5503
Au 18.0652 13.6987 26.6357
Pd 8.57401 15.757 15.4857
Au 20.5966 25.028 21.5407
Pd 6.45917 14.0422 18.6052
Au 13.5529 5.50278 21.9628
Pd 19.1966 16.3253 18.2344
Pd 6.3816 16.9459 19.1977
Au 5.24183 22.2813 20.8551
Au 10.332 21.2595 6.45737
Pd 11.2959 18.6217 6.4684
Au 14.7464 22.613 5.50665
Pd 17.0234 14.4461 10.3531
Au 6.38119 23.1121 9.7351
Pd 9.8287 6.94348 7.57371
Au 12.3599 5.65745 7.22173
Pd 6.527 17.8966 14.9086
Au 20.9641 8.29688 7.13146
Pd 17.9298 5.79712 19.0552
Au 11.3066 5.9134 20.5198
Pd 14.7053 8.62717 13.5307
Au 6.25091 12.0581 23.8766
Pd 23.6923 20.238 11.4325
Au 19.1475 16.0638 23.3224
Pd 19.8909 18.5545 22.6223
Au 18.4051 23.5077 22.5556
Pd 7.60281 9.30798 10.6756
Au 10.6218 21.6001 11.3398
Pd 6.74077 21.5705 11.8776
Pd 23.5746 16.8524 10.2875
Au 22.5362 21.0335 13.7799
Au 4.89774 15.1573 20.7743
Pd 7.09874 16.811 7.54151
Au 4.5997 17.2293 12.948
Pd 26.4427 19.8814 19.3839
Au 12.3204 3.57784 11.0427
Pd 22.2768 12.7396 17.4201
Au 8.37047 23.6542 21.7955
Pd 12.6372 26.7263 17.5416
Au 12.5992 27.019 22.3235
Pd 11.9051 9.48519 17.7286
Au 24.4369 19.2181 8.99739
Pd 11.1869 19.1817 13.602
Au 13.648 5.70575 9.89774
Pd 7.58332 22.077 19.5604
Au 4.37409 13.9846 16.4251
Pd 13.9125 15.7705 14.5742
Au 4.82151 19.8457 21.8049
Pd 24.9306 17.1801 15.9508
Au 20.3574 21.5386 8.53828
Pd 10.811 21.7262 14.5771
Pd 21.5562 10.4726 15.9897
Pd 24.8516 12.8437 16.5538
Pd 17.922 13.6197 2.72199
Pd 17.5623 14.076 24.1746
Pd 20.7528 13.9043 22.8126
Pd 12.117 9.96639 24.3946
Pd 22.7195 14.0018 14.8325
Pd 26.0753 15.246 17.8911
Pd 15.1383 13.418 11.9266
Pd 11.8235 13.7337 18.8113
Pd 16.1228 16.4195 5.9109
Pd 19.8909 17.5534 5.04428
Au 6.00802 9.00728 17.4554
Au 22.8512 21.4799 9.30085
Pd 15.9425 13.5252 17.5138
Au 11.6183 5.06578 14.2512
Pd 21.1814 7.26602 13.2847
Au 19.6957 7.30368 5.0256
Pd 18.4919 15.8007 12.2947
Au 12.995 16.5381 2.56575
Pd 19.841 5.5985 17.2991
Au 15.062 3.66501 10.9839
Pd 13.6749 7.86463 6.84577
Au 26.8185 10.7757 16.5511
Pd 15.0309 7.89442 9.25742
Au 17.1805 8.63135 18.9603
Pd 19.4823 9.72336 9.28916
Au 8.69874 13.1709 19.912
Pd 17.1438 19.2857 23.6499
Au 4.96408 18.3913 17.2968
Pd 19.6034 14.1531 14.3344
Au 4.26473 8.86399 12.4218
Pd 16.3534 7.43737 7.03772
Pd 16.9735 14.4035 7.65132
Au 10.4302 15.181 2.89567
Au 3.97245 10.4934 14.4819
Pd 9.41252 19.0186 10.7516
Au 22.1191 19.6783 7.23918
Pd 6.74456 8.02219 12.8713
Au 17.7067 3.99238 10.8394
Pd 17.7149 10.4412 13.195
Au 12.0278 10.2836 9.7626
Pd 13.9272 12.4783 21.1879
Au 8.14485 22.8494 13.6894
Pd 15.0606 12.3112 6.08593
Au 4.01875 15.841 18.3179
Pd 10.165 13.6086 14.8734
Au 16.4789 8.73594 23.8678
Pd 5.98749 17.3644 21.801
Au 17.0445 3.92229 6.57728
Pd 13.3551 20.3034 14.8581
Au 13.8291 3.28005 13.3647
Pd 13.9513 22.4944 23.0917
Au 25.1783 19.2265 21.6785
Pd 20.7544 23.5399 15.7115
Pd 18.8699 9.97721 16.9153
Au 12.7954 10.4397 12.5209
Au 22.2747 17.0063 15.088
Pd 12.0876 7.72029 13.7326
Au 21.3219 12.5302 9.59325
Pd 21.3578 20.2744 24.2138
Au 26.3034 19.3848 15.8493
Pd 8.1136 5.169 9.17993
Au 7.49027 4.19728 16.3368
Pd 24.5401 18.5427 18.2579
Au 12.7213 13.8823 2.59317
Pd 23.2195 8.2249 15.1803
Au 15.5908 24.9226 19.4849
Pd 10.7745 11.1686 13.8927
Au 18.9223 4.00627 8.42244
Pd 4.5345 20.4653 19.0601
Au 8.28751 21.1692 9.53857
Pd 11.7337 28.0892 15.398
Au 25.0711 11.1866 23.5191
Pd 8.14693 12.4922 13.4394
Au 18.5627 6.81995 23.747
Pd 19.3349 19.1373 9.32087
Pd 11.0404 12.6115 21.2036
Au 15.6293 15.0259 2.39908
Au 19.4259 19.7093 6.6736
Pd 8.68092 23.4411 11.0875
Au 5.14214 8.1722 15.0041
Pd 12.9495 19.1219 18.5705
Au 11.0033 15.4043 16.7413
Pd 10.6703 12.5843 9.30685
Au 9.54258 4.28891 11.3502
Pd 11.3697 9.18712 7.03699
Au 20.219 6.60857 21.2936
Pd 16.8856 26.8524 15.3193
Au 8.78571 17.7368 13.3923
Pd 13.5113 24.7558 21.5408
Au 4.8201 11.4622 17.0355
Pd 6.18744 12.8027 21.1237
Au 18.1371 19.9799 20.9992
Pd 17.9662 17.5427 7.4384
Au 5.41608 20.5794 9.84794
Pd 21.499 9.84685 13.4032
Au 21.9501 5.51786 15.4237
Pd 16.2514 12.5334 20.0585
Pd 20.794 16.5321 10.4734
Au 21.4659 23.8783 9.52027
Au 8.79973 16.4197 9.72618
Pd 10.4355 8.59053 15.587
Au 23.6766 10.8915 19.1771
Pd 17.9003 20.2175 11.3247
Au 4.33351 15.3794 10.8135
Pd 14.9519 23.4147 12.5497
Au 4.35833 20.1464 12.3782
Pd 17.4554 18.6085 4.94192
Au 4.10455 17.9905 19.99
Pd 8.37846 10.343 24.1974
Au 14.9136 12.6118 3.38604
Pd 19.882 21.6136 13.5457
Au 13.1293 7.7905 19.4324
Pd 24.52 10.3659 7.50008
Au 19.0242 21.0531 23.3211
Pd 8.89123 20.4226 12.9404
Au 6.79517 8.32201 19.9424
Pd 6.28414 15.308 14.0652
Au 11.6155 21.4641 19.0985
Pd 14.7644 25.5284 10.8214
Pd 24.3895 9.29726 10.0238
Pd 16.8121 9.9832 8.78447
Pd 9.83613 3.08613 15.8185
Pd 22.5056 6.27685 11.1345
Pd 10.0313 22.3321 23.5757
Pd 16.0985 12.032 23.1826
Pd 12.8085 7.06318 16.3433
Pd 14.8399 14.5769 23.6859
Pd 18.9835 6.02978 11.9299
Pd 21.6557 15.6761 5.82797
Pd 20.8967 11.1233 22.4905
Pd 16.046 22.6667 17.6434
Au 17.0824 18.0972 12.788
Au 10.894 26.8495 13.0801
Pd 15.0138 21.0218 26.2951
Au 20.2765 18.0192 19.9537
Pd 17.7118 7.52597 9.64381
Au 10.1592 11.123 26.0419
Pd 12.846 9.8091 15.1772
Au 14.0526 3.66905 8.31813
Pd 12.3627 10.3679 20.4804
Au 22.8866 7.46922 8.76477
Pd 17.2443 7.4471 13.5126
Au 14.143 10.1308 8.10499
Pd 13.9453 16.9372 24.7396
Au 18.8714 8.77135 25.4981
Pd 13.4469 5.26782 18.7638
Au 16.4828 2.66808 8.8506
Pd 6.62955 19.0586 23.6802
Au 7.44948 7.63727 8.46965
Pd 7.39968 11.5028 17.9875
Au 6.66753 10.5844 15.2423
Pd 15.77 3.85458 18.0216
Pd 21.231 15.6686 12.9402
Au 11.1234 19.1145 20.7031
Au 10.8181 23.8968 13.0724
Pd 9.88799 14.1763 5.55674
Au 22.8807 11.0966 11.4961
Pd 21.54 12.852 12.8647
Au 19.053 22.8735 25.2619
Pd 14.8761 16.1539 21.5284
Au 23.6631 6.14131 13.5293
Pd 14.9163 7.84972 21.462
Au 19.5381 4.65009 5.79411
Pd 8.6601 16.4371 4.48997
Au 15.407 6.90986 15.348
Pd 13.2952 16.9255 10.2183
Au 8.60036 18.3901 25.4256
Pd 18.2943 24.8813 19.9334
Au 26.3005 17.3088 20.1868
Pd 14.1934 14.5578 9.674
Au 14.7243 10.3122 25.2031
Pd 19.4703 15.2019 20.8125
Au 20.0275 4.31812 19.8008
Pd 22.1531 20.1261 18.331
Pd 21.063 22.7917 23.1515
Au 15.5102 16.1537 16.7701
Au 14.3361 25.6209 23.973
Pd 17.6114 18.4145 18.7915
Au 26.5442 13.1417 10.6986
Pd 15.5926 16.6859 8.70288
Au 15.9706 15.5088 26.1385
Pd 21.0441 27.1736 16.9907
Au 10.6531 6.93348 18.0269
Pd 10.9313 20.3289 8.7971
Au 15.5627 18.662 21.5831
Pd 13.4739 14.5402 26.2784
Au 10.885 2.77988 13.1912
Pd 17.7896 16.2127 3.65048
Au 23.3951 21.1389 22.6284
Pd 15.1061 28.2206 11.245
Au 11.8121 22.6556 21.5119
Pd 4.88397 10.1798 10.2348
Au 8.04407 20.9994 24.7642
Pd 8.61628 11.4993 8.20987
Au 12.3504 24.5537 19.2081
Pd 9.60096 21.2575 21.0875
Pd 15.6639 12.4588 8.84535
Au 24.5279 18.9225 13.7446
Au 14.4417 25.0532 6.90026
Pd 12.569 11.1699 3.21403
Au 10.7311 13.4166 12.2903
Pd 20.3485 13.7129 7.19585
Au 13.3826 17.8229 12.8838
Pd 15.0424 7.4158 4.59935
Au 22.9643 7.14755 21.8791
Pd 24.9297 23.593 16.1617
Au 9.2142 11.0158 16.0197
Pd 8.80316 15.1558 12.8881
Au 17.0208 27.3284 19.8702
Pd 6.82018 14.5508 23.2585
Au 9.25743 19.3668 22.9267
Pd 20.2508 24.1904 13.2123
Au 11.1044 17.6098 8.95148
Pd 10.2473 28.1086 17.6161
Au 22.212 10.1651 8.69422
Pd 16.8076 23.124 26.6748
Au 19.1582 28.3678 15.2521
Pd 9.36154 26.7367 15.3242
Pd 18.4206 27.3115 17.6193
Au 5.11312 22.76 13.9875
Au 19.3761 22.6563 10.9807
Pd 23.9951 16.1919 19.5419
Au 20.8131 7.80829 16.2494
Pd 19.7633 10.1257 4.71946
Au 18.603 3.24424 17.8099
Pd 10.2413 25.4728 17.6778
Au 8.59784 25.5064 12.9954
Pd 13.6809 11.8778 18.456
Au 12.9226 12.9779 14.0131
Pd 10.3484 15.3717 20.1809
Au 6.78171 20.4368 17.573
Pd 24.9763 21.3917 14.7675
Au 8.47241 8.3542 22.143
Pd 10.458 20.3188 25.4828
Au 14.5334 9.03431 17.2156
Pd 7.22035 21.2239 22.2529
Au 4.12499 13.0941 19.1328
Pd 7.23237 13.3711 15.9571
Au 20.9389 10.5276 18.6085
Pd 12.6034 16.8982 20.2367
Pd 14.8563 5.36892 6.38872
Pd 7.29983 5.70055 11.7721
Pd 13.2872 18.2337 4.69116
Pd 13.4485 8.12329 11.2973
Pd 21.6628 8.82078 10.9229
Pd 14.656 10.7139 10.6472
Pd 15.0644 17.5968 19.1804
Pd 13.484 20.3557 21.0211
Pd 22.1151 17.4171 17.8783
Pd 20.8602 20.4623 11.3023
Pd 17.5786 11.8062 6.77203
Pd 23.6674 6.20062 17.226
Au 13.096 20.5526 6.22024
Au 12.1673 8.07026 22.1441
Pd 16.0607 6.24788 11.3672
Au 23.4266 17.1949 7.53412
Pd 17.6697 17.2584 10.2556
Au 14.8358 9.86389 3.554
Pd 19.4104 16.8789 14.6514
Au 19.6269 18.2617 12.1436
Pd 15.753 24.331 14.9865
Au 25.368 14.7738 14.8781
Pd 18.719 6.47108 7.44737
Au 26.3251 12.0678 14.2255
Pd 11.5319 6.10395 11.6465
Au 8.81575 19.0864 7.73922
Pd 15.7582 3.67601 22.3481
Au 10.8352 4.95541 9.17366
Pd 6.77846 5.97955 14.5748
Au 18.4041 9.13295 6.76117
Pd 16.7645 15.8834 14.2404
Au 15.7089 5.48792 20.4174
Pd 14.8461 9.93982 19.7534
Pd 20.1872 3.54364 15.5701
Au 20.8141 15.1712 16.4624
Au 17.7289 24.9909 13.1276
Pd 16.4289 4.79493 13.6898
Au 25.8708 11.9218 21.0049
Pd 21.8454 4.07889 17.742
Au 17.7482 2.52678 15.3297
Pd 21.2055 17.2281 24.621
Au 21.5352 15.0563 19.1114
Pd 12.7512 11.8885 26.2814
Au 23.5157 15.2184 17.0667
Pd 12.8232 12.6443 10.9065
Au 20.4267 14.7648 25.4078
Pd 17.6978 21.7053 8.92759
Au 8.43127 13.1094 25.0549
Pd 10.6449 17.5758 18.4186
Au 11.8811 15.165 24.2469
Pd 8.60296 15.7155 18.2731
Au 8.68981 6.47329 20.0655
Pd 23.1781 19.4102 16.0032
Au 18.6012 10.2396 23.39
Pd 3.91739 11.9959 12.0942
Pd 8.16275 16.899 23.1861
Au 11.3886 20.2323 4.24892
Au 22.1568 25.4062 11.9151
Pd 16.6167 19.349 8.8318
Au 22.8493 15.2136 23.9975
Pd 23.805 8.64384 12.5669
Au 16.5821 25.7041 8.59006
Pd 14.158 10.1291 22.5459
Au 22.6252 12.4328 24.2382
Pd 19.4465 9.31729 21.0101
Au 23.6102 11.3717 14.2144
Pd 17.1793 22.5138 20.0402
Au 11.2297 15.0178 10.0868
Pd 18.5072 11.1337 19.4121
Au 13.0289 12.5063 8.06203
Pd 8.32124 10.4906 20.355
Au 9.34062 6.91739 13.2537
Pd 24.761 9.44747 21.3724
Au 10.8203 12.4657 23.9464
Pd 18.5767 12.5151 21.8315
Au 19.5965 12.3717 24.7393
Pd 18.9066 24.0551 8.59778
Pd 9.65754 9.28936 9.079
Au 6.30129 24.3297 12.2246
Au 26.3908 10.9118 9.31565
Pd 15.3815 20.267 13.0033
Au 23.9135 16.1353 13.0503
Pd 18.6579 12.5202 9.06058
Au 12.4156 25.2422 8.75811
Pd 27.4448 13.5058 16.1586
Au 15.7794 9.76486 6.00832
Pd 18.1464 4.89799 21.8224
Au 27.0956 17.7894 17.7411
Pd 21.2615 20.4364 21.2314
Au 19.8463 26.946 12.9584
Pd 17.1517 11.6154 10.9483
Au 16.8121 10.1587 21.411
Pd 4.55898 21.1843 16.3271
Au 20.9161 12.6864 20.2027
Pd 24.5724 22.4914 12.439
Au 19.2611 18.8609 25.2457
Pd 14.0919 24.4368 17.1041
Au 17.0018 23.9068 10.6298
Pd 10.6976 25.0845 21.7011
Pd 23.9761 23.2822 18.6241
Au 15.4771 26.848 21.9935
Au 13.9707 29.0387 16.5877
Pd 14.1114 26.6101 15.3152
Au 6.33535 12.6913 7.57897
Pd 11.27 20.1428 16.7126
Au 15.5157 21.4678 10.6482
Pd 13.4496 14.0435 16.5837
Au 7.18842 14.6572 5.98241
Pd 17.486 17.8031 16.1785
Au 19.7394 25.1539 24.1157
Pd 17.3004 22.2667 12.9088
Au 23.0586 23.7877 14.1785
Pd 25.8266 15.5923 11.3239
Au 12.3883 2.40172 15.3846
Pd 12.5792 23.813 11.0084
Au 19.9575 26.9807 19.7842
Pd 8.61117 13.8394 10.654
Au 3.7566 14.6253 13.2866
Pd 15.4658 17.5016 3.4877
Au 15.7201 21.5778 15.2296
Pd 24.1649 12.3701 9.70476
Pd 13.9888 5.91853 13.0097
Pd 9.27252 19.8502 18.7755
Pd 22.9995 9.59073 23.3696
Pd 20.6856 8.35104 23.2583
Pd 8.44857 12.2191 22.408
Pd 22.9678 14.4108 21.3493
Pd 9.43625 24.0607 15.556
Pd 26.6018 12.5862 18.5708
Pd 24.1704 10.3776 16.6459
Pd 9.25572 7.04151 10.4695
Pd 15.9762 18.3941 25.8847
Pd 12.5714 8.50044 4.48239
Au 22.1912 25.3297 19.3988
Au 12.5779 27.0424 10.8489
Pd 6.80014 16.3487 11.504
Au 22.9864 18.5334 23.1394
Pd 22.0744 22.7349 11.7683
Au 25.484 8.14578 16.9546
Pd 13.1253 16.3861 17.7924
Au 24.5098 7.54578 19.5485
Pd 17.2349 4.97894 16.2125
Au 13.7051 21.5056 17.2783
Pd 16.2813 5.34618 8.78624
Au 21.8544 13.057 5.00201
Pd 18.766 22.7605 17.9067
Au 17.6323 20.6427 26.1045
Pd 20.2182 11.1598 7.13921
Au 15.4675 12.8631 25.8077
Pd 19.9561 18.5174 16.9051
Au 6.22113 10.7519 12.5366
Pd 17.2945 26.6678 10.9767
Au 14.1711 17.0534 27.3685
Pd 19.1271 8.64138 11.7784
Pd 17.3644 11.0853 25.5559
Au 16.4155 2.30238 12.9561
Au 11.1728 27.0309 19.9257
Pd 6.98832 25.0494 15.1118
Au 21.7993 26.1317 14.6041
Pd 19.2317 12.7867 4.9373
Au 16.7309 29.1627 16.7067
Pd 17.6109 13.2569 12.9496
Au 20.6757 17.3394 7.67952
Pd 21.2059 5.49195 7.77147
Au 15.2222 29.1735 18.9704
Pd 14.5673 11.5769 15.9722
Au 27.5783 16.1144 15.744
Pd 16.9146 14.5632 21.6886
Au 26.5131 17.0689 13.5679
Pd 14.4925 19.9061 23.9423
Au 12.5948 14.7105 21.7662
Pd 12.9435 15.0897 12.2038
Au 7.74008 24.3086 17.8094
Pd 16.4264 10.9402 17.7984
Au 17.9681 14.8544 16.3669
Pd 6.34046 20.4704 14.3738
Pd 22.1438 15.0652 8.52544
Au 16.5159 9.48732 15.4099
Au 8.7023 9.68796 13.3973
Pd 24.1529 13.479 19.1833
Au 19.237 25.6752 15.4032
Pd 14.3922 14.6171 7.06854
Au 17.1023 20.95 6.19952
Pd 22.8162 22.0394 16.3354
Au 20.2755 7.00059 9.67445
Pd 12.6021 21.7798 25.2538
Au 17.4527 8.60678 4.20202
Pd 20.0342 25.0135 17.9276
Au 26.0791 9.86347 18.9659
Pd 18.7871 15.4174 6.01576
Au 19.729 12.5867 16.8612
Pd 19.7413 13.9069 11.1783
Au 16.9855 24.8627 24.5493
Pd 5.42109 22.9039 18.2101
Au 22.5316 23.0589 20.9131
Pd 17.9885 19.9484 14.4404
Au 15.0705 21.3422 7.86608
Pd 16.5107 16.716 23.6945
Pd 22.7402 14.4254 11.016
Au 18.1093 26.2421 22.2388
Au 10.116 17.8877 15.7883
Pd 19.8357 22.5695 20.5689
Au 17.3341 5.99983 4.97769
Pd 16.382 8.95739 11.4301
Au 24.0082 14.6691 6.41512
Pd 20.7591 19.1747 14.3969
Au 26.0425 14.64 20.6466
Pd 19.2506 8.82431 14.5104
Au 12.5206 29.0795 18.7968
Pd 13.3184 16.9634 7.16889
Au 23.2701 11.8138 21.6416
Pd 15.5384 26.4414 13.1146
Au 21.335 4.60112 13.0095
Pd 24.5675 13.3724 12.5773
Au 16.7108 14.0086 4.94049
Pd 17.5627 20.4789 17.0069
Au 15.6746 20.3439 19.2522
Pd 11.8252 20.3695 23.1389
Au 15.9687 6.09548 23.2939
Pd 10.5773 23.0596 9.07264
Pd 13.14 25.363 13.0869
Au 15.189 20.1636 4.35774
Au 10.4301 25.4152 10.7388
Pd 16.4884 22.1688 24.2435
Au 18.8932 3.53789 13.1635
Pd 24.999 21.0782 17.4739
Au 9.4621 5.94227 15.8022
Pd 12.7643 17.9257 15.7563
Au 15.1957 2.34796 15.5718
Pd 18.3545 16.4529 25.8073
Au 8.25355 11.9819 5.55946
Pd 12.5278 13.2764 5.22215
Au 13.5752 19.1593 8.66053
Pd 15.4314 28.9356 14.3639
Au 25.5945 9.41804 14.4706
Pd 15.4494 26.8997 17.6141
Au 14.3575 27.1135 8.77587
Pd 7.06128 18.5034 9.57952
Au 17.5657 28.2774 13.0491
Pd 10.7782 17.8369 3.44406
Au 22.6839 8.55941 17.9691
Pd 13.8941 26.998 19.8968
