665
Atoms. Timestep: 20779
Pd 20.9334 17.1337 4.3547
Pd 12.272 18.498 11.0674
Pd 13.4077 8.14026 20.3496
Pd 5.70184 19.6494 16.7712
Pd 12.643 18.6784 15.7072
Au 7.30764 17.2058 6.42314
Au 23.1811 17.8894 17.8347
Pd 22.9724 11.5434 19.5331
Au 17.4481 4.98773 21.2656
Pd 17.1035 20.3978 3.53093
Au 19.6541 22.6974 24.6218
Pd 22.0562 9.2784 23.4523
Au 6.81652 21.6472 18.0668
Pd 20.9996 27.7855 16.2779
Au 19.2743 27.834 14.3138
Pd 19.0223 25.272 11.3913
Au 13.55 3.78683 12.5272
Au 11.2681 4.51568 13.9491
Pd 14.5514 8.50052 12.1405
Au 21.8948 3.51947 11.3788
Pd 8.0967 13.5804 15.9455
Au 27.7586 13.0398 13.8113
Pd 20.0152 21.1639 9.93918
Au 21.4237 13.2812 25.673
Pd 7.47522 9.62422 17.1726
Au 25.0174 9.48029 19.4015
Pd 22.1337 20.3785 22.3483
Au 7.87072 14.872 13.5126
Au 6.39368 17.3673 23.3974
Pd 22.8214 14.3249 13.2845
Au 5.59927 8.10883 18.5108
Pd 9.10505 18.3958 20.3697
Au 11.1766 8.65894 5.67282
Pd 11.6725 11.8952 25.2089
Au 20.2155 22.4641 19.9874
Pd 12.4858 24.7388 8.43918
Au 16.2991 10.1403 8.88232
Pd 12.2184 25.115 13.2192
Au 18.409 13.7445 3.45635
Au 9.70959 24.7968 8.33256
Pd 15.5961 8.39823 18.7881
Au 24.0223 19.1103 8.56144
Pd 4.87022 10.5912 21.1175
Au 13.6668 9.58221 4.81284
Pd 21.9083 18.1415 15.2394
Au 14.0775 18.0629 13.0835
Pd 17.3568 15.3586 10.6453
Au 6.86458 5.66516 19.1707
Pd 18.9056 15.0837 8.14745
Au 11.9072 19.2374 4.26324
Au 17.8627 24.9021 8.87006
Pd 13.0141 15.4067 5.81291
Au 16.0272 28.3665 17.8458
Pd 13.4434 10.6908 22.7003
Au 6.37827 8.23085 13.5095
Pd 11.204 23.4082 6.4237
Au 9.52925 13.5035 25.5317
Pd 13.9397 12.3566 17.9185
Au 10.9475 1.82078 14.7867
Pd 16.3798 17.652 3.82422
Pd 9.05919 4.50289 12.2596
Pd 25.7378 17.7942 12.922
Pd 15.1657 4.20203 22.4548
Pd 18.4152 19.816 26.2288
Pd 19.9512 13.2148 6.4395
Pd 14.132 13.3223 22.3625
Pd 10.7893 13.4921 15.8863
Pd 8.0225 20.8706 15.7549
Pd 11.0452 13.8882 4.52418
Pd 12.4515 3.51136 22.6011
Pd 8.14659 16.8729 18.3647
Pd 6.78771 12.267 21.9583
Au 19.6019 7.69963 6.70164
Au 16.7076 23.8529 6.62314
Pd 17.2516 13.7272 6.54497
Au 26.2131 12.7511 8.3118
Pd 8.63276 25.3346 10.7949
Au 18.9736 12.0176 22.2134
Pd 7.36944 17.8745 15.7443
Au 9.61639 10.2226 7.21396
Pd 13.3578 16.1893 11.0192
Au 21.0454 16.9196 19.4563
Pd 19.2777 6.8643 16.9151
Au 12.799 21.7629 4.9979
Pd 15.8054 22.0168 10.6833
Au 18.9691 5.64442 8.48987
Pd 6.68488 19.1681 19.3547
Au 23.622 14.2307 23.7029
Pd 11.3918 24.4095 18.4051
Au 22.9408 20.8289 6.79555
Pd 10.4399 16.1286 11.2932
Au 25.5181 8.75114 16.4425
Pd 8.99021 25.2642 17.553
Pd 16.0175 24.4813 20.3111
Au 3.59543 13.1239 12.8005
Au 12.3229 21.2535 25.2761
Pd 6.41933 19.65 14.0095
Au 15.4058 9.71085 26.8041
Pd 18.5673 19.6606 7.63803
Au 15.3233 17.446 19.8857
Pd 25.0794 15.2663 12.053
Au 8.99485 11.2616 23.9844
Pd 20.9911 13.7295 23.1122
Au 8.24135 12.3731 18.5904
Pd 14.6812 21.0947 24.0075
Au 3.66575 15.9491 12.7661
Pd 16.1638 14.6724 15.1175
Au 3.3148 16.094 17.2727
Pd 15.3952 18.3893 17.0876
Au 19.0154 25.7601 15.9981
Pd 11.9382 21.7721 19.2417
Au 6.50055 16.8115 20.5938
Pd 11.7519 13.9972 26.901
Au 12.7321 16.4377 26.4533
Pd 10.9544 4.90684 20.8328
Pd 11.6835 19.8723 13.4376
Au 7.22188 13.756 9.48597
Au 19.9736 9.29573 21.7174
Pd 3.93395 11.7972 15.385
Au 9.03572 7.70443 23.6588
Pd 4.23711 13.5556 17.3902
Au 13.4578 28.3144 18.4266
Pd 18.6642 18.5603 4.69623
Au 22.3281 12.3425 5.99923
Pd 11.4678 5.06126 11.2802
Au 17.2499 27.266 12.6543
Pd 13.7188 25.2234 10.775
Au 10.5442 15.7129 24.1909
Pd 17.4709 24.7492 13.5996
Au 17.9962 17.661 12.1551
Pd 15.3714 27.1211 20.1396
Au 7.75753 25.8984 13.3487
Pd 15.4966 9.56762 24.2092
Au 12.0886 12.5426 13.6918
Pd 12.4489 10.0608 18.5192
Au 8.70747 8.43966 14.9017
Pd 21.9623 15.8543 21.9092
Pd 7.77506 5.94156 14.1045
Au 3.83023 17.7161 19.6896
Au 13.7405 19.8109 6.61226
Pd 6.908 18.7184 11.5912
Au 24.5673 6.90295 11.8445
Pd 10.4804 15.582 6.69311
Au 11.1604 3.08215 9.60224
Pd 20.2387 4.70017 15.389
Au 15.8433 7.64296 4.91106
Pd 17.3091 4.5212 12.9001
Au 7.99695 4.5323 17.013
Pd 9.06886 8.86008 21.2762
Au 9.97637 16.1482 26.6099
Pd 13.1739 1.26585 13.3109
Au 13.5203 11.7828 27.2219
Pd 22.6335 9.14639 18.2414
Au 20.9104 6.84691 21.7811
Pd 13.4957 8.08916 23.1597
Au 12.9193 14.311 24.5313
Pd 20.3906 11.7117 4.08471
Au 3.25005 18.8795 17.3102
Pd 11.2489 16.8174 8.9877
Pd 16.5523 17.7218 14.561
Au 13.2891 24.1041 20.2454
Au 4.83305 12.0234 10.652
Pd 18.5452 10.6071 12.884
Au 9.18229 12.4445 13.7725
Pd 13.8711 20.7781 12.3418
Au 21.0293 4.02747 8.98288
Pd 21.8858 21.6676 17.7992
Au 14.3524 16.5843 15.4012
Pd 15.1816 23.0211 15.2295
Au 5.72726 15.9297 8.49058
Pd 20.9788 11.6424 8.63458
Au 24.6134 16.1133 22.0471
Pd 15.7206 21.3384 7.75676
Au 7.32542 11.7716 11.7508
Pd 24.2538 10.8992 21.8636
Au 22.8311 22.3101 20.4787
Pd 21.1541 22.873 22.5225
Au 22.6569 8.97642 20.8939
Pd 20.1379 26.3976 9.23162
Au 15.363 23.1491 25.6245
Pd 7.57404 22.2316 13.4095
Pd 18.6294 14.1825 24.3132
Pd 25.114 12.8781 13.1898
Pd 22.683 21.4028 9.45061
Pd 3.67182 14.5955 15.023
Pd 18.2181 8.23505 8.97261
Pd 11.9298 15.087 22.0488
Pd 11.8225 12.0989 9.29418
Pd 5.01273 21.5207 12.6541
Pd 17.4369 19.9766 10.1066
Pd 16.1557 25.6609 15.7811
Pd 19.1247 23.9996 18.0574
Pd 15.9705 18.7062 8.24936
Au 17.0208 8.85131 11.3911
Au 26.1937 12.7028 15.9438
Pd 23.5341 7.02674 17.0545
Au 8.50185 16.0541 8.50924
Pd 10.9732 9.66133 9.47513
Au 9.08727 11.7681 9.33322
Pd 9.00812 13.7874 22.869
Au 7.08411 9.76694 22.767
Pd 13.7436 15.0965 20.0973
Au 16.246 12.2136 26.8759
Pd 17.9884 7.58619 20.753
Au 23.2322 18.1725 21.0234
Pd 13.0669 21.9912 7.78225
Au 18.8965 9.25463 4.28303
Pd 14.3992 12.062 8.94796
Au 20.1468 11.1207 24.4541
Pd 24.4412 11.0177 17.2861
Au 11.5588 5.43714 8.45178
Pd 15.1461 5.89696 17.2399
Au 4.83004 19.8527 10.2442
Pd 16.0774 3.45578 16.3586
Pd 22.8169 9.82597 7.29041
Au 27.5277 16.4481 18.1188
Au 6.34718 24.1465 17.2229
Pd 11.3894 3.03833 19.0972
Au 13.0943 22.5365 10.3548
Pd 20.3435 10.9598 14.7671
Au 18.9306 12.6277 26.4994
Pd 19.8857 3.7515 12.9171
Au 10.0393 5.64165 18.3423
Pd 19.5733 8.32328 11.4593
Au 12.3194 26.5952 20.0083
Pd 13.6796 17.5427 8.65128
Au 13.1492 17.3411 18.2018
Pd 9.18263 16.0159 15.5958
Au 16.2425 9.8438 14.0086
Pd 21.1411 23.1543 11.7841
Au 24.8414 11.6109 6.25344
Pd 11.0164 12.3115 18.2517
Au 9.28057 12.9849 6.68389
Pd 13.4462 25.09 15.5397
Au 13.2327 27.269 9.11695
Pd 13.5264 13.7325 15.7117
Pd 19.0921 17.7866 14.9428
Au 3.79702 14.6031 10.2472
Au 25.2071 15.8714 17.2998
Pd 8.88413 20.6283 9.01421
Au 15.623 12.0075 15.707
Pd 14.795 22.0593 19.4643
Au 16.9033 13.1074 9.2068
Pd 13.421 12.3013 4.88735
Au 16.3842 4.79501 9.16062
Pd 24.3522 13.5269 18.1815
Au 10.9491 11.2771 5.14778
Pd 17.3723 6.28391 18.5451
Au 21.6446 19.8903 19.8126
Pd 5.03131 23.0585 19.2882
Au 20.2917 25.1159 13.7258
Pd 10.5963 17.4207 17.3812
Au 8.76289 9.31316 12.1771
Pd 7.57237 23.3155 9.21608
Au 14.2776 5.91167 7.74353
Pd 18.0409 17.0345 25.6878
Au 13.8038 3.47418 17.7288
Pd 8.73606 15.4518 4.88131
Pd 11.0325 9.68023 23.5919
Au 20.9909 14.3108 4.0516
Au 21.5298 6.67581 8.38734
Pd 9.21236 22.6341 11.2035
Au 5.67126 22.0849 15.3804
Pd 12.6638 27.4483 11.7735
Au 14.2306 25.7229 18.1039
Pd 16.2318 15.2087 2.56991
Au 4.37032 13.4222 21.6569
Pd 9.20936 5.10524 9.67484
Au 9.43165 2.21957 17.3037
Pd 9.40999 11.1624 16.2865
Au 9.85984 26.1857 15.1016
Pd 20.0003 16.3525 23.7554
Au 16.2467 3.88753 19.0466
Pd 9.51412 14.709 17.9778
Au 19.4442 24.0556 6.83183
Pd 16.2383 19.6189 12.4807
Au 8.69096 6.15417 21.2039
Pd 11.9898 13.8761 11.2742
Au 4.90792 10.675 13.1308
Pd 10.8355 20.5214 21.469
Pd 11.0125 2.50779 12.1838
Au 22.5852 11.6253 13.4816
Au 14.6297 9.78897 16.6782
Pd 13.238 5.85694 21.696
Au 26.9549 10.8227 17.8417
Pd 18.1304 11.2608 2.62294
Au 5.17936 19.015 21.6584
Pd 9.4312 18.4361 10.4843
Au 18.6364 16.4375 2.95844
Pd 20.9199 16.6459 9.03477
Au 8.85418 19.4166 17.734
Pd 13.8933 18.945 25.5992
Au 14.5214 19.6968 3.94217
Pd 15.5521 26.2032 8.62438
Au 15.7939 20.7017 26.5174
Pd 24.5414 19.8339 11.1113
Au 20.4074 23.7807 9.32355
Pd 4.25706 18.767 12.6745
Au 4.98256 22.539 10.0719
Pd 6.24391 11.9499 16.7254
Au 7.84755 19.4272 22.3832
Pd 23.0539 10.0803 9.96475
Pd 18.0573 18.8835 17.1899
Pd 10.5493 14.7941 13.5635
Pd 27.1428 13.6292 18.1736
Pd 19.9856 15.888 11.3986
Pd 16.7738 7.96415 16.2817
Pd 10.0985 21.7765 14.5742
Pd 9.50656 18.1469 5.10763
Pd 19.6339 5.43399 19.7596
Pd 18.0252 10.0345 26.0269
Pd 19.8649 18.6332 10.4612
Pd 18.8268 14.8714 15.8889
Pd 11.102 23.9048 15.7595
Au 22.1742 21.9364 14.0839
Au 8.74132 22.4499 7.01007
Pd 23.4323 23.1962 16.0704
Au 21.9433 24.3077 18.2539
Pd 15.9805 11.4129 22.1983
Au 11.7191 26.6731 17.0509
Pd 20.6795 9.09218 8.97281
Au 11.8977 8.93616 12.011
Pd 5.602 17.1677 17.7723
Au 20.3384 9.31987 16.8491
Pd 11.0069 7.74899 19.475
Au 10.6668 5.29608 23.4862
Pd 20.9386 13.5674 20.3232
Au 17.1669 14.7554 26.7046
Pd 16.7802 7.16941 13.4466
Au 12.35 7.91473 7.93134
Pd 18.342 17.3907 19.4539
Au 7.81527 6.88477 11.4511
Pd 15.4908 13.0135 19.9633
Au 6.31971 21.0971 8.24591
Pd 14.4637 11.9695 24.8027
Pd 18.0251 11.6263 5.19336
Au 12.6901 10.5551 7.18328
Au 25.9437 14.8834 20.0826
Pd 22.5013 18.2193 10.6653
Au 23.0491 24.0368 9.97487
Pd 21.6897 15.4635 6.3379
Au 22.7591 6.6501 19.6382
Pd 13.1927 22.0478 21.9031
Au 26.2039 8.48664 13.625
Pd 15.3045 6.13321 20.2133
Au 15.5211 11.2246 6.39211
Pd 5.95244 13.0536 14.1921
Au 18.6296 3.69211 10.4759
Pd 24.9254 17.2382 10.3863
Au 15.6766 2.41552 13.8113
Pd 17.4692 18.7271 21.6141
Au 23.1387 5.41115 10.1394
Pd 23.5862 19.6032 13.5222
Au 19.8869 15.2944 26.4667
Pd 22.1509 15.8157 25.095
Au 13.2446 1.85453 10.7462
Pd 17.8477 9.44204 23.1881
Pd 15.8045 6.626 23.1369
Au 20.7691 15.8559 14.0278
Au 20.5802 17.9633 25.9216
Pd 10.7313 22.4563 8.8969
Au 25.3812 10.1028 8.3752
Pd 7.85404 15.4606 24.8269
Au 12.201 11.0829 16.1005
Pd 12.9482 17.0318 23.807
Au 7.04995 10.1802 19.8258
Pd 9.92324 6.16547 15.7242
Au 16.7202 28.2021 15.1419
Pd 17.8654 10.4578 16.1049
Au 4.31644 20.3855 19.4042
Pd 13.6002 10.2637 13.9997
Au 17.5598 24.3312 24.5381
Pd 14.6891 17.4447 6.11586
Au 10.2997 13.7658 20.4029
Pd 14.5132 7.40874 25.5596
Au 16.1494 18.1825 27.1443
Pd 20.7336 19.8148 5.58249
Au 17.2298 26.0046 18.2132
Pd 3.8383 20.1897 14.8973
Pd 12.9906 6.46539 13.0551
Au 26.8651 10.8519 12.5558
Au 22.0934 25.536 15.8356
Pd 11.9195 13.1726 6.92884
Au 9.77075 25.7279 20.0729
Pd 20.4225 5.7657 10.8804
Au 4.9296 17.0926 10.6826
Pd 11.1662 3.94791 16.6131
Au 15.1052 5.11412 14.4067
Pd 24.1453 20.2253 18.8728
Au 7.01531 12.9205 24.5297
Pd 4.63901 10.5494 18.2186
Au 18.1353 23.1483 22.0417
Pd 22.7835 9.52434 15.5735
Au 14.913 18.5978 22.4775
Pd 22.9466 24.4466 13.4646
Au 11.9266 17.8237 6.46543
Pd 6.98374 18.4763 8.91309
Au 27.1343 17.3267 15.3585
Pd 8.7804 17.8885 24.5465
Au 20.276 18.1964 21.6291
Pd 16.3199 24.8765 11.1237
Pd 12.5793 19.6709 23.1918
Au 5.21386 9.38815 15.7754
Au 25.9497 18.7994 17.3459
Pd 13.6723 20.2873 17.6571
Au 22.1537 18.0657 23.664
Pd 15.8094 11.1658 11.3409
Au 23.9204 7.40557 14.399
Pd 18.9739 18.8093 23.8552
Au 27.412 11.0871 9.94664
Pd 10.2071 26.7452 12.4631
Au 7.08798 14.4257 6.75767
Pd 17.6986 20.2833 14.9036
Au 7.79284 23.702 19.6417
Pd 18.3124 22.7894 11.1671
Au 6.58689 11.1118 8.83339
Pd 4.5839 15.1274 19.5887
Au 21.8059 14.1704 8.5929
Pd 9.15305 13.7941 11.3819
Au 7.00376 7.00448 16.4877
Pd 6.11627 16.871 13.3095
Au 19.1341 21.3614 17.2445
Pd 12.1718 27.4419 14.399
Pd 11.7619 22.5512 12.7027
Pd 7.61484 16.2077 10.958
Pd 14.8218 8.652 7.1673
Pd 19.2141 15.4321 21.3205
Pd 11.8749 15.9252 15.7241
Pd 20.6625 23.2871 15.9244
Pd 10.6134 10.198 14.0589
Pd 16.4449 11.0773 18.2829
Pd 12.1671 14.6891 18.0718
Pd 18.0626 17.3845 9.16117
Pd 24.6337 14.3761 9.63697
Pd 21.4051 7.08344 15.4229
Au 23.6479 13.5422 21.1827
Au 6.50928 7.7942 21.0159
Pd 17.6301 10.274 20.5284
Au 27.4435 15.6087 13.191
Pd 18.1875 8.97993 18.3527
Au 19.6163 13.4499 10.1528
Pd 20.3744 20.2868 14.9728
Au 22.1285 5.77706 13.0082
Pd 15.78 15.3136 5.06501
Au 21.8349 11.6048 17.1142
Pd 20.4315 21.6685 7.38074
Au 24.1409 14.2262 6.88948
Pd 8.31147 9.05027 9.4845
Au 5.87144 24.372 14.2565
Pd 10.6354 17.992 22.5835
Au 8.93321 3.51713 14.7969
Pd 13.0999 6.93218 10.3112
Au 13.2226 11.4258 11.5187
Pd 14.5052 10.5618 20.1057
Au 4.26005 16.3063 21.9942
Pd 23.624 13.0513 15.597
Pd 12.7719 5.61006 18.8996
Au 14.5892 28.5631 13.4314
Au 24.8707 22.0079 14.2174
Pd 14.5498 7.72569 14.9163
Au 14.8512 26.0142 13.3527
Pd 24.9192 10.6682 14.6076
Au 26.1071 19.7747 14.7408
Pd 17.2734 11.8859 24.4008
Au 20.9622 10.7139 11.4939
Pd 23.8706 9.50427 12.4611
Au 13.2155 23.7626 24.1087
Pd 15.6108 17.6699 10.6698
Au 8.86631 21.0738 19.8334
Pd 17.5026 13.0534 11.9745
Au 21.6194 11.44 21.8333
Pd 10.479 11.3954 11.6132
Au 11.2314 18.4271 25.4358
Pd 9.02161 20.0948 12.7113
Au 13.3101 7.0181 5.53453
Pd 22.8485 15.6568 15.8529
Au 18.2487 2.92698 14.9395
Pd 11.3603 12.4695 22.7043
Pd 17.3786 21.3983 24.0974
Au 7.27263 10.6744 14.4627
Au 21.0017 13.5 15.3081
Pd 27.4383 10.4433 15.2115
Au 13.0313 9.64321 25.492
Pd 9.44464 22.5785 17.6523
Au 15.7467 15.7116 8.45867
Pd 17.4395 9.25329 6.48115
Au 14.9061 15.874 22.3357
Pd 19.3129 12.3736 17.2768
Au 21.3172 24.861 20.7462
Pd 7.69882 14.3794 20.4096
Au 8.26312 23.7967 15.4633
Pd 10.3217 14.2245 9.02166
Au 22.3349 23.4084 7.51181
Pd 19.4368 6.31161 13.3746
Au 14.9641 12.9002 13.2872
Pd 13.7105 19.851 20.3951
Au 18.5499 6.63395 23.1381
Pd 25.6878 12.0563 19.8967
Au 25.8637 8.99122 10.764
Pd 17.2805 17.0356 6.578
Pd 16.4554 19.5461 5.85734
Au 5.64633 12.6102 19.5032
Au 21.3876 8.73523 13.392
Pd 8.68087 16.3215 22.141
Au 14.0046 23.961 6.29516
Pd 20.2207 13.206 12.7525
Au 11.2288 16.4662 4.03634
Pd 23.5797 12.1757 8.48283
Au 3.89352 21.6974 17.2247
Pd 13.1059 7.77635 17.4793
Au 16.1079 21.0599 21.658
Pd 17.163 16.4054 17.1508
Au 14.1512 25.8214 22.1281
Pd 21.7242 20.4984 11.8401
Au 8.53858 22.0517 22.3658
Pd 15.8492 14.1783 24.4092
Au 21.3638 5.49837 17.7212
Pd 25.2701 15.182 14.6872
Au 21.855 27.2191 13.6989
Pd 18.206 21.6057 5.78772
Au 6.05373 15.4416 15.6215
Pd 6.39567 21.4086 20.8948
Pd 20.4942 16.5865 16.8987
Au 24.31 22.9409 18.5006
Au 18.013 27.8124 19.868
Pd 23.3983 15.6953 19.5188
Au 20.864 20.3788 24.7023
Pd 15.0809 23.7043 8.81648
Au 23.7996 22.3043 11.8374
Pd 16.4303 18.9288 24.5365
Au 6.17727 9.42403 11.0576
Pd 15.658 15.818 12.6942
Au 19.0004 19.9517 19.6272
Pd 13.0627 14.7708 8.76523
Au 22.6656 18.0835 6.3155
Pd 22.1609 7.80024 10.9907
Au 17.3468 16.5041 23.1292
Pd 11.5317 17.2714 13.4605
Au 15.2248 25.5875 24.5007
Pd 12.7972 17.5112 21.0658
Au 18.0747 12.6714 14.601
Pd 9.74564 7.47411 7.81907
Au 15.4941 21.9856 5.09256
Pd 18.4057 11.4465 7.7592
Pd 16.9396 13.5848 17.52
Pd 11.7446 19.6483 8.65122
Pd 25.5756 21.438 16.7918
Pd 10.159 6.94724 13.0703
Pd 16.0183 23.7113 17.7065
Pd 13.6976 4.28456 9.8018
Pd 16.7621 15.2881 19.7871
Pd 20.2736 10.7796 19.3784
Pd 19.413 20.8195 22.2136
Pd 12.1263 1.49654 17.0711
Pd 20.7402 19.156 17.4386
Pd 14.2139 20.0232 9.76762
Au 25.4587 17.5343 19.6339
Au 16.6889 22.1326 13.2403
Pd 15.5203 23.4618 22.7782
Au 17.8211 22.4337 26.525
Pd 7.90136 19.9506 6.45212
Au 17.1683 7.6801 25.2325
Pd 16.2549 21.1444 17.023
Au 14.3639 23.433 12.7252
Pd 23.1987 16.9708 13.0677
Au 17.9925 22.2706 8.51725
Pd 8.36946 7.73949 18.8321
Au 18.9505 15.4944 5.34466
Pd 12.8616 5.72097 15.8511
Au 17.0323 13.909 22.055
Pd 15.2296 5.75737 11.6061
Au 15.2445 16.5598 25.252
Pd 18.554 28.1817 17.1404
Au 10.7045 16.3484 19.8914
Pd 15.197 27.5077 10.9683
Au 20.446 7.89767 19.2709
Pd 14.4645 14.291 26.7548
Pd 18.8974 8.50416 14.6068
Au 10.3062 7.32865 10.4193
Au 13.3815 23.0013 17.3116
Pd 10.4247 8.57428 16.975
Au 10.7996 26.788 9.80778
Pd 15.6306 7.45965 9.52275
Au 14.9231 20.0661 14.8932
Pd 4.39443 17.5616 15.2081
Au 17.8177 23.1738 15.7621
Pd 21.3347 19.2785 8.34667
Au 21.7339 14.2332 17.8754
Pd 8.78104 3.74764 19.544
Au 17.5175 22.2611 19.4719
Pd 6.35299 14.8098 22.6887
Au 18.7013 25.2578 20.4397
Pd 13.3943 3.08649 15.1773
Au 9.69564 10.1413 18.9454
Pd 16.8555 6.68244 7.17562
Au 16.9533 25.9985 22.3717
Pd 14.2405 27.6061 15.9771
Au 11.9323 8.11681 14.8971
Pd 6.67934 14.6248 17.9935
Pd 18.6108 4.17013 17.5049
Au 18.1979 15.2769 13.3665
Au 5.82666 14.378 11.8309
Pd 14.8437 13.9645 10.8021
Au 24.0004 7.78587 9.00825
Pd 20.3266 10.2748 6.34239
Au 19.8873 27.7311 11.7154
Pd 9.69448 24.1723 13.2388
Au 13.8052 3.5363 20.3376
Pd 9.1893 11.5105 21.2625
Au 13.7771 17.0974 3.59953
Pd 10.9982 20.7288 10.9416
Au 26.9388 13.5011 11.1851
Pd 15.7883 3.0474 11.1427
Au 19.1992 14.934 18.5872
Pd 22.4846 12.8705 10.9566
Au 4.98439 13.2894 8.22031
Pd 11.1434 24.4365 10.8195
Au 9.88189 18.8755 15.1659
Pd 23.4478 16.4693 8.31445
Au 13.6726 14.4756 3.39611
Pd 18.2479 12.7694 19.7837
Pd 17.5699 5.53056 15.4529
Au 13.388 5.41199 24.2514
Au 10.9667 22.6167 23.3616
Pd 24.9431 11.7199 10.7875
Au 14.6576 13.6969 6.89853
Pd 20.7737 18.2622 12.875
Au 16.2129 10.0394 3.96802
Pd 16.315 19.7527 19.2596
Au 11.592 7.34741 24.9087
Pd 23.3638 20.23 16.1307
Au 10.3359 23.2376 20.7144
Pd 17.6966 27.2546 10.0402
Au 19.6686 25.104 22.9833
Pd 12.8435 21.746 15.0149
Au 14.8305 15.1715 17.6881
Pd 19.3835 22.5498 13.695
Au 6.54401 23.9483 11.6989
Pd 11.5399 10.1159 21.0019
Au 21.7342 25.8284 11.3681
Pd 11.3884 19.1592 19.1905
Au 9.52185 18.3719 7.71251
Pd 13.2314 15.0721 13.4064
Pd 12.6831 12.5324 20.3117
Au 11.165 7.44156 22.0778
Au 18.9494 20.2824 12.4451
Pd 10.6905 20.6125 6.42502
Au 19.8229 8.41421 24.612
Pd 13.7378 9.52565 9.68966
Au 22.9258 11.739 24.111
Pd 20.1715 26.4442 18.4793
Au 17.9259 1.97572 12.4266
Pd 27.7129 14.8614 15.8688
Au 11.5837 25.0481 22.2037
Pd 15.689 8.7021 21.5975
Au 7.06801 21.1878 10.9214
Pd 17.8049 6.28667 10.9326
Au 19.9387 17.5266 6.82854
Pd 11.1335 20.6817 16.8473
Au 18.595 10.8634 10.2615
Pd 24.5001 17.7395 15.3611
Au 15.9036 12.8097 3.92872
Pd 22.5917 15.5584 10.8667
Au 8.82405 17.4293 13.161
Pd 9.92971 20.277 24.0231
