665
Atoms. Timestep: 20669
Pd 14.8104 6.32318 15.5992
Pd 8.98445 3.81794 13.5532
Pd 22.614 22.3725 13.054
Pd 27.437 19.4376 16.9565
Pd 27.7513 17.0855 15.4444
Au 11.6992 26.546 13.4298
Au 24.716 8.26215 17.4354
Pd 16.411 19.1837 23.0085
Au 8.38247 22.3002 21.9855
Pd 6.42811 17.6892 19.716
Au 16.6433 7.32867 9.69655
Pd 16.271 20.1754 9.51025
Au 10.5269 22.4663 23.795
Pd 19.0186 12.938 17.5217
Au 8.59503 13.3537 17.0292
Pd 14.4467 8.18073 11.0455
Au 4.0654 13.9309 11.4614
Au 20.7309 15.2206 12.7287
Pd 21.86 3.8077 16.3117
Au 25.808 17.2155 21.9416
Pd 17.2913 4.71206 9.5482
Au 13.9617 7.09011 24.2618
Pd 15.9334 8.66191 16.2906
Au 17.3311 5.1808 16.2175
Pd 12.2327 6.64837 10.0088
Au 13.1248 13.7139 24.7101
Pd 9.86935 19.7173 6.37567
Au 25.7535 19.8135 21.4047
Au 3.49002 11.3696 16.0493
Pd 25.2818 16.6159 10.6762
Au 4.92064 7.53734 18.4151
Pd 19.3649 19.5325 12.7933
Au 8.71641 10.6806 20.809
Pd 22.1504 5.90243 14.4484
Au 20.8288 8.85861 23.2807
Pd 16.4177 19.407 17.3411
Au 17.0266 7.19041 14.3118
Pd 7.6813 19.8049 15.5194
Au 17.7533 24.0669 16.055
Au 16.1819 10.9528 5.4474
Pd 18.8758 18.9596 18.0682
Au 18.3675 16.9427 16.2787
Pd 17.8322 22.7439 9.41965
Au 14.346 19.6071 15.7581
Pd 14.0554 18.6275 24.3529
Au 16.9703 10.2291 10.1032
Pd 10.294 22.3298 15.1412
Au 11.9646 7.72998 12.5133
Pd 14.055 13.5514 8.46927
Au 22.0115 11.8046 23.541
Au 18.5182 7.93693 16.5281
Pd 15.3983 16.9329 4.9683
Au 16.4906 21.682 7.05555
Pd 12.9128 22.9917 22.7471
Au 10.0423 3.49638 11.1827
Pd 23.5616 11.5088 14.4086
Au 19.3776 20.4343 25.9539
Pd 21.0819 10.1624 20.9847
Au 18.3137 24.3137 12.5624
Pd 8.94495 17.246 5.28216
Pd 23.6919 22.5015 18.247
Pd 13.2694 4.41673 14.7711
Pd 3.4003 12.7523 13.7577
Pd 16.4592 3.1636 11.5499
Pd 16.1115 23.7226 23.4543
Pd 16.2224 12.8291 10.5603
Pd 24.3605 23.6823 20.7002
Pd 10.5872 24.2322 21.5515
Pd 10.6893 22.5517 17.9541
Pd 20.3508 13.6336 24.689
Pd 15.6368 8.5247 22.7405
Pd 18.9704 6.99952 11.7567
Au 14.4936 8.51109 13.8032
Au 12.1782 18.1784 16.1854
Pd 19.6059 13.6173 20.1581
Au 14.9761 10.6745 12.1161
Pd 25.4686 10.0282 15.4005
Au 3.00243 16.0813 8.05947
Pd 19.6742 26.9415 9.0341
Au 5.23207 9.41995 11.3431
Pd 12.6821 16.4748 25.6568
Au 14.6632 14.5937 3.78806
Pd 21.5408 20.346 11.3003
Au 4.46849 16.7326 21.203
Pd 11.6579 6.89714 7.19141
Au 3.93375 19.3915 16.5609
Pd 9.09435 8.81427 18.7126
Au 15.5495 19.8715 5.37901
Pd 17.0334 14.7524 17.3952
Au 10.2425 8.97821 14.4227
Pd 13.4696 9.90205 15.8057
Au 17.0883 18.992 25.721
Pd 22.2383 10.8083 12.0626
Pd 9.54172 6.42484 13.7704
Au 7.73456 22.8844 15.01
Au 25.9832 12.0071 13.3818
Pd 15.922 14.3884 23.5216
Au 5.3822 11.4351 20.5229
Pd 23.3101 23.0881 15.6024
Au 10.4102 11.3954 18.2703
Pd 10.0191 18.1259 14.3859
Au 7.47838 11.1447 18.5088
Pd 18.6855 5.19069 13.8744
Au 8.84125 23.4108 19.5878
Pd 13.5932 7.80514 17.5366
Au 21.486 24.9709 12.5813
Pd 8.01516 11.564 10.98
Au 9.86455 8.98235 6.46618
Pd 26.5189 12.373 15.997
Au 5.60234 15.3448 23.2831
Pd 19.201 16.4381 20.8664
Au 23.4464 18.394 20.9213
Pd 13.7989 12.6042 1.80768
Au 18.6739 11.0801 19.8189
Pd 15.1686 22.9376 20.9165
Pd 12.1814 9.4587 7.73402
Au 14.3475 13.2365 27.6852
Au 11.9321 8.02841 4.7393
Pd 16.5667 12.416 18.9673
Au 7.84461 10.4235 5.41731
Pd 17.1761 13.5133 3.87722
Au 6.59031 22.0245 19.9396
Pd 13.6218 26.819 15.3088
Au 24.0672 16.4383 8.28816
Pd 20.096 7.58927 20.8178
Au 9.01957 14.8253 26.1713
Pd 12.1169 13.7269 19.4508
Au 24.4462 11.9751 11.1469
Pd 21.2953 16.7785 8.87599
Au 25.7056 17.4683 17.1853
Pd 15.2037 16.8462 2.24614
Au 12.4243 3.85931 10.2463
Pd 6.34325 15.0093 16.2553
Au 18.2279 16.8127 8.24055
Pd 13.8862 21.8714 13.942
Au 13.851 5.60409 19.4374
Pd 14.8445 8.12681 20.0112
Pd 11.5464 14.8536 8.18634
Au 13.6733 12.2663 14.4857
Au 7.76659 20.6611 10.8744
Pd 10.9889 18.2031 18.5737
Au 23.715 25.3375 10.8382
Pd 11.6793 11.3276 2.73034
Au 20.0026 24.4354 10.348
Pd 16.5244 16.7304 21.795
Au 5.7192 11.8713 12.6443
Pd 20.0163 20.9215 19.3381
Au 4.812 14.6372 6.72337
Pd 3.58577 13.5128 8.86619
Au 17.6449 24.1759 21.0475
Pd 15.0225 25.2907 19.6826
Au 11.9185 12.0837 8.72479
Pd 17.1319 14.7571 20.0947
Au 5.74333 6.49259 16.0807
Pd 24.233 24.51 13.5385
Au 18.1299 2.60914 13.5665
Pd 17.065 13.7069 27.0143
Au 14.9629 3.25719 9.30037
Pd 10.8409 11.8348 11.2111
Pd 21.7745 15.7433 19.7646
Au 7.82161 11.9423 24.3721
Au 12.2858 10.4164 13.0913
Pd 5.29987 17.3491 7.29033
Au 7.72222 17.0783 15.268
Pd 20.0208 10.5484 16.4144
Au 17.1712 4.39625 22.4686
Pd 16.3438 20.5702 14.1258
Au 27.1994 16.5719 12.6533
Pd 12.3883 19.0315 26.2837
Au 24.1337 25.5826 16.4797
Pd 10.7585 24.6534 11.6242
Au 21.0374 21.883 16.9968
Pd 18.9932 8.53548 9.63312
Au 3.86615 18.1505 18.9325
Pd 23.294 17.741 15.5807
Au 20.8562 17.6697 14.3531
Pd 24.9167 21.5999 13.988
Au 26.0729 21.9198 19.646
Pd 16.9373 8.70124 12.22
Au 21.3874 12.6483 15.4997
Pd 7.23249 15.5534 21.0862
Pd 8.59964 10.5744 16.0314
Pd 15.6902 28.4344 14.6641
Pd 18.7222 17.4845 23.4304
Pd 19.6781 5.87166 9.49383
Pd 16.1599 23.3036 13.8103
Pd 9.06908 6.4386 6.91226
Pd 19.8202 9.60978 11.9713
Pd 13.9525 9.9518 24.5852
Pd 24.2209 13.0504 22.3593
Pd 19.2462 26.7375 11.7166
Pd 23.0241 19.427 13.4314
Pd 14.0147 17.0089 14.5399
Au 21.5891 14.0037 17.7775
Au 9.10743 17.6156 20.4997
Pd 23.329 16.7317 12.9492
Au 17.0864 21.604 22.19
Pd 12.6246 21.6595 25.3577
Au 19.2894 6.49041 23.0755
Pd 15.9214 11.501 2.77581
Au 12.8035 21.7353 16.4597
Pd 21.7403 18.462 4.82325
Au 17.7807 17.9133 5.61746
Pd 21.7085 23.0581 7.35158
Au 11.4099 21.8332 12.2495
Pd 13.2105 16.9214 11.7651
Au 16.6379 24.3169 7.51808
Pd 20.1025 3.88889 18.4812
Au 17.8972 2.69826 20.5601
Pd 12.2046 2.61784 16.3627
Au 13.4833 22.9012 7.1468
Pd 15.3396 12.3505 25.3415
Au 6.61942 13.6182 19.0909
Pd 6.48723 13.9536 25.4455
Pd 11.7976 8.52069 23.5191
Au 5.54886 11.9554 9.85389
Au 14.2133 3.63152 21.3855
Pd 12.5024 25.9844 20.5448
Au 8.19128 21.6369 24.5965
Pd 12.1602 20.2328 23.2813
Au 19.8285 13.5193 4.42061
Pd 16.6898 5.78772 11.9758
Au 12.2969 16.3097 20.7623
Pd 13.9699 14.5981 15.8613
Au 20.9222 16.2153 24.6736
Pd 18.5108 6.18804 18.6333
Au 3.8214 14.1491 15.9887
Pd 9.19144 6.46134 20.1641
Au 7.699 4.67546 11.3606
Pd 11.879 20.2061 14.4709
Au 16.6563 15.1175 14.8392
Pd 13.1782 4.93075 8.01114
Au 21.1053 10.3331 9.52752
Pd 6.61633 21.2966 13.2481
Au 7.74089 7.93638 14.9443
Pd 7.42504 9.75592 12.9493
Pd 7.50892 12.7228 14.4879
Au 10.2823 15.5781 19.0133
Au 12.5681 5.14222 22.9926
Pd 15.8725 19.1799 20.2433
Au 23.3729 26.9312 12.9821
Pd 21.0361 14.7118 22.309
Au 21.4146 8.02384 16.4245
Pd 22.8336 13.5494 12.8776
Au 17.9643 13.8912 8.51189
Pd 5.36371 7.93874 13.7039
Au 9.75513 12.3055 4.26948
Pd 17.8709 12.8035 24.5426
Au 14.7994 17.8078 26.8366
Pd 13.8645 18.9352 3.66237
Au 23.408 20.4339 16.1732
Pd 18.7666 17.6198 10.6459
Au 18.1907 28.3754 13.7446
Pd 15.6909 22.0419 16.2364
Au 10.9495 9.92721 25.5517
Pd 18.2815 14.0989 12.6792
Au 5.04177 17.103 14.5984
Pd 10.2198 20.0771 16.6451
Pd 9.47469 11.3685 13.4208
Au 21.5064 7.69733 10.0464
Au 23.6527 10.4081 21.9842
Pd 4.91836 15.6049 18.6991
Au 26.7229 20.9315 12.1524
Pd 9.80623 6.28839 11.1618
Au 7.37927 8.44929 7.37087
Pd 5.95287 10.3858 15.0174
Au 5.37438 12.6321 23.3666
Pd 18.9649 20.1477 23.4023
Au 4.14272 8.68302 16.048
Pd 14.8341 20.4212 26.1604
Au 12.1 9.47624 10.4096
Pd 11.1892 15.7367 5.34212
Au 10.8833 26.6596 16.0598
Pd 6.62689 8.95498 19.9506
Au 11.1256 11.5394 15.5489
Pd 10.9557 21.9201 7.57634
Au 26.8316 23.388 13.1631
Pd 20.7463 3.68293 13.7888
Au 11.2233 18.4221 4.49868
Pd 16.4156 4.84659 19.9351
Pd 11.5655 17.6539 23.4069
Au 15.2919 16.8321 16.9555
Au 25.0185 9.01264 20.1019
Pd 12.5854 9.67742 19.2101
Au 18.5388 19.0425 20.981
Pd 16.727 10.628 23.7163
Au 19.3931 18.5159 3.60032
Pd 22.3937 20.2529 18.8022
Au 15.4749 2.36619 19.4088
Pd 20.7165 25.7252 19.5177
Au 14.7858 21.3027 11.5373
Pd 12.2667 13.787 22.1561
Au 7.4849 6.55382 18.1952
Pd 18.3092 21.5112 17.0547
Au 7.7617 6.38186 9.26845
Pd 15.0212 6.10499 21.8966
Au 23.8702 13.928 19.5655
Pd 23.9836 12.677 17.0594
Au 18.3615 20.4523 5.10901
Pd 9.20137 14.7764 14.7373
Au 13.9185 28.0049 12.7
Pd 20.8334 18.1923 19.5934
Pd 16.3455 26.6951 21.4018
Pd 11.9106 13.9348 3.43278
Pd 19.3323 24.6769 7.8113
Pd 11.5978 18.9571 12.2471
Pd 17.7704 25.7928 18.8675
Pd 7.73882 16.4681 7.87582
Pd 3.1612 18.203 12.2214
Pd 20.0556 7.50767 14.0789
Pd 17.5979 27.5563 16.5072
Pd 23.4079 25.4565 19.1309
Pd 8.30558 18.612 17.8985
Pd 3.38319 11.3748 11.2578
Au 17.5715 16.1623 3.28931
Au 18.6787 19.4356 15.3416
Pd 13.7426 15.9633 23.2267
Au 13.3013 23.6354 11.295
Pd 20.9465 27.8875 13.3283
Au 19.6108 15.1089 27.0447
Pd 21.1431 16.5595 16.9197
Au 19.6788 22.2275 21.5507
Pd 19.6479 25.725 16.9549
Au 12.5949 21.6643 9.63098
Pd 14.1708 6.07154 12.8642
Au 19.2928 23.5192 18.7376
Pd 17.5856 15.27 5.86954
Au 3.70889 10.0671 13.5992
Pd 22.3306 16.0969 6.19299
Au 9.43702 13.2656 9.27187
Pd 19.241 4.95316 20.8306
Au 15.7887 17.5269 10.08
Pd 10.0158 17.3542 25.6535
Au 21.9887 13.254 5.93033
Pd 21.238 20.0741 21.6789
Pd 13.9517 3.41824 12.2728
Au 10.3301 6.54819 22.5249
Au 22.9065 20.9637 8.76772
Pd 14.2222 19.1523 13.0231
Au 25.3559 15.2264 23.603
Pd 23.6298 21.2135 20.8193
Au 22.8144 18.6123 7.31239
Pd 15.1187 22.6234 9.17751
Au 12.6424 11.6821 26.3843
Pd 8.23953 8.1863 21.9219
Au 25.8143 11.6964 20.6877
Pd 19.3452 15.5533 18.3992
Au 25.3739 18.5695 12.4589
Pd 18.7594 20.245 10.3613
Au 21.8281 5.45433 21.0825
Pd 10.5081 17.1552 7.39111
Au 7.82229 19.0384 24.7696
Pd 15.0699 15.1229 25.9502
Au 7.5662 19.7848 20.8191
Pd 19.9137 14.9254 10.1433
Au 10.5854 16.1945 12.5369
Pd 7.53853 9.10163 9.94711
Pd 25.3695 16.458 14.5474
Au 16.8683 28.1854 19.1516
Au 10.3348 5.03477 8.83606
Pd 14.6436 5.55381 10.2852
Au 6.78846 14.1286 11.0471
Pd 21.172 17.6802 11.6135
Au 11.2339 13.9926 16.7638
Pd 7.77563 15.908 18.2797
Au 5.65824 21.3837 15.9257
Pd 12.1525 20.6421 18.8741
Au 17.5391 25.4747 9.87614
Pd 21.9123 26.0271 15.0825
Au 4.70484 10.2767 18.2193
Pd 18.467 9.44412 21.9777
Au 27.2631 14.3675 14.132
Pd 11.9424 13.2319 6.05636
Au 17.2365 17.1939 18.9792
Pd 24.875 16.4377 19.5556
Au 9.27443 13.256 19.8583
Pd 21.9658 12.6996 20.9585
Au 3.0267 15.5852 13.5876
Pd 22.7847 15.4806 10.7709
Pd 5.98835 20.0454 18.3174
Au 22.5007 8.77807 19.0135
Au 16.5339 23.4288 18.4255
Pd 19.8783 8.98067 18.5978
Au 12.7943 26.2889 10.8505
Pd 21.0879 19.1602 16.6885
Au 7.20587 16.5294 25.1557
Pd 19.0254 22.3101 6.8885
Au 13.978 18.1959 21.7726
Pd 21.0901 11.514 18.6
Au 12.6002 23.3539 20.0575
Pd 23.8936 15.4069 17.151
Au 9.03752 24.3766 16.8544
Pd 5.18376 12.0047 7.13536
Au 13.582 19.1708 10.2594
Pd 17.6716 28.2303 10.2184
Au 18.557 22.0114 14.3816
Pd 9.46151 19.7997 22.7089
Au 12.1448 23.9163 13.7934
Pd 23.5061 15.6087 21.741
Au 21.8299 24.3829 17.381
Pd 14.9006 10.5269 27.1353
Pd 27.7691 18.9853 13.6584
Au 14.9376 4.4697 23.9487
Au 13.1304 12.0824 17.4379
Pd 13.8863 11.3972 6.89861
Au 14.5256 12.0617 22.7736
Pd 11.7783 19.3364 8.1659
Au 17.4257 10.7743 26.3527
Pd 6.91666 18.6175 13.1481
Au 23.5691 9.503 10.2233
Pd 8.03159 21.7571 17.4387
Au 9.90958 16.6363 16.6574
Pd 5.89815 17.6796 17.0709
Au 20.4849 8.61734 7.42354
Pd 13.8562 6.35675 5.83859
Au 24.019 23.4875 8.73419
Pd 15.8054 13.1997 13.1982
Au 6.38596 20.6223 22.9871
Pd 21.2747 17.4092 22.2061
Au 18.494 9.68955 14.4046
Pd 13.618 15.3442 6.29391
Au 15.9366 4.20732 14.0481
Pd 24.6435 13.9374 14.8494
Pd 9.80134 12.6746 22.625
Pd 4.80518 14.0487 21.0495
Pd 2.53318 18.0393 14.7216
Pd 11.1554 17.3722 10.0239
Pd 11.6629 5.06555 12.6641
Pd 21.4062 9.86388 14.3367
Pd 9.16526 13.7988 12.1231
Pd 20.3389 21.912 9.17575
Pd 15.9571 6.61978 18.0388
Pd 16.0875 10.3338 20.8434
Pd 5.27558 19.6615 11.3826
Pd 6.77323 8.91927 17.1502
Au 14.5783 14.9935 10.5623
Au 8.85585 18.645 8.8467
Pd 9.07094 18.274 11.6346
Au 22.9214 14.4641 24.2443
Pd 22.2997 23.0078 10.5639
Au 15.7307 12.6153 16.3645
Pd 9.53872 10.0663 23.3112
Au 24.3123 14.1113 6.88106
Pd 14.0407 11.9415 20.0943
Au 13.4155 16.8169 8.68557
Pd 11.4764 18.9587 20.9938
Au 22.7196 4.20052 18.841
Pd 26.087 14.5337 21.0704
Au 11.8315 10.6299 5.29703
Pd 13.8583 12.1792 4.3875
Au 20.9368 20.4946 6.56621
Pd 14.3034 25.4295 12.9883
Au 18.3635 8.57888 24.543
Pd 11.988 11.3787 23.5533
Au 25.2723 14.526 12.263
Pd 13.673 20.7717 21.1031
Pd 9.70207 24.8605 14.2977
Au 4.91169 19.6069 20.9204
Au 11.1855 9.15025 16.9702
Pd 11.5826 2.64623 13.6047
Au 17.0525 21.5517 24.9939
Pd 15.5447 13.5338 6.09598
Au 25.6558 24.2093 18.2487
Pd 19.4889 27.9194 18.5011
Au 25.9881 23.8719 15.5627
Pd 19.3137 17.6911 26.1443
Au 15.8154 15.5343 8.00473
Pd 16.0006 10.6892 14.5826
Au 14.6776 14.3616 21.1616
Pd 13.741 9.78011 3.3307
Au 10.9369 21.642 21.2175
Pd 18.8538 23.1341 23.8456
Au 7.7602 16.0637 12.7375
Pd 6.49895 17.8879 22.5674
Au 23.2934 18.3834 10.1528
Pd 12.008 24.227 9.0479
Au 10.8306 15.1064 24.1967
Pd 16.745 6.4856 24.0365
Pd 12.6987 7.22683 21.3254
Au 5.90037 12.4129 16.6657
Au 14.4366 1.49798 17.1751
Pd 25.7581 10.6872 17.9968
Au 21.7114 12.9227 10.5733
Pd 24.5711 9.67559 12.7684
Au 26.5612 14.9698 16.6043
Pd 16.6329 26.9666 8.07982
Au 6.86094 15.6947 5.51189
Pd 14.776 16.5696 19.7079
Au 23.5879 11.2302 19.3839
Pd 9.26921 14.5431 6.76471
Au 23.4041 20.0344 23.2199
Pd 24.1529 20.7006 11.2696
Au 7.35409 18.892 6.57854
Pd 19.5837 12.0323 22.3933
Au 10.2858 20.0886 25.2581
Pd 16.452 18.0143 14.7149
Au 25.831 21.6075 16.8696
Pd 20.7482 19.2491 9.01739
Au 22.9423 10.2729 16.722
Pd 16.8096 18.9896 12.0395
Pd 19.064 12.1619 10.4167
Au 8.41036 21.1618 8.20355
Au 14.9683 28.296 17.2585
Pd 9.48874 20.548 19.3291
Au 15.0899 27.5798 10.2405
Pd 22.278 15.1995 14.9747
Au 7.36039 7.29649 11.8991
Pd 16.306 9.11108 7.61816
Au 24.9974 19.7083 18.6306
Pd 14.3081 24.2362 15.3966
Au 21.1895 18.9023 24.466
Pd 17.3652 21.7463 11.9079
Au 21.0876 21.5468 24.1736
Pd 17.4083 7.06357 21.1848
Au 18.0164 25.6208 23.1952
Pd 14.1272 7.65787 8.32867
Au 23.5192 17.3355 23.7584
Pd 9.8081 11.821 6.84651
Au 18.8985 26.9413 21.0066
Pd 14.3069 25.1736 22.2136
Au 17.4078 21.2193 19.5858
Pd 13.4405 9.78116 21.7928
Pd 11.7407 15.8267 14.862
Au 17.0414 12.5948 21.7141
Au 19.9976 14.9927 6.99459
Pd 17.308 8.736 19.0454
Au 11.6891 14.2943 26.9241
Pd 15.9923 14.2516 1.62855
Au 21.1865 5.64928 11.9617
Pd 9.01763 15.7904 10.138
Au 12.4928 20.5903 5.65186
Pd 9.98287 15.2251 21.6325
Au 19.3907 12.4997 26.8869
Pd 22.3025 22.8721 22.3719
Au 9.78751 22.8337 9.91717
Pd 26.2404 13.2854 18.6008
Au 12.9012 3.11777 18.8959
Pd 14.6257 25.2202 9.11232
Au 9.68812 9.09207 11.6613
Pd 14.2505 2.04097 14.5862
Au 27.0091 18.2873 19.5687
Pd 16.6086 2.36319 15.825
Au 9.98934 4.75498 18.1483
Pd 17.0833 16.4881 27.1643
Pd 23.095 17.7932 18.2204
Pd 20.371 10.9709 5.8321
Pd 22.2859 8.08014 12.5125
Pd 21.7178 23.1499 19.8641
Pd 17.5654 3.35369 18.0686
Pd 16.0884 16.9516 24.4264
Pd 18.3124 9.10089 5.70186
Pd 18.1097 15.3994 25.0342
Pd 14.6194 14.2046 18.447
Pd 14.9295 4.08877 17.1877
Pd 12.4669 5.30292 17.2092
Pd 9.0465 14.7959 4.12391
Au 4.07839 18.0542 9.62028
Au 21.2029 6.3739 18.655
Pd 13.7871 18.6473 18.4364
Au 11.4141 11.4581 20.8788
Pd 15.9151 24.0288 11.2706
Au 20.6299 23.6237 14.8385
Pd 8.95897 17.1328 23.1777
Au 27.3514 15.7673 18.9776
Pd 5.60381 14.4595 13.7349
Au 8.07347 4.9849 16.0321
Pd 16.5842 26.6236 12.1901
Au 18.2256 6.96995 7.50853
Pd 19.0244 4.13913 11.5024
Au 25.0285 23.1045 11.3059
Pd 18.45 14.6714 22.5951
Au 15.8314 16.3727 12.6062
Pd 10.2757 12.5944 25.2801
Au 14.1893 20.3587 7.73097
Pd 9.75638 6.97893 16.6155
Au 14.7668 21.2302 18.638
Pd 17.2989 15.3613 10.6021
Pd 6.18466 19.6406 8.81199
Au 12.1936 7.06659 15.1248
Au 16.7254 18.7945 3.25351
Pd 19.2333 3.13478 15.9371
Au 18.6449 10.5455 7.9378
Pd 10.6572 8.83603 20.9978
Au 14.2538 8.96296 5.79652
Pd 16.4316 25.9207 14.651
Au 21.9476 25.2888 8.74735
Pd 18.3381 19.7172 7.74091
Au 20.1397 28.1777 15.8446
Pd 6.73935 10.345 22.549
Au 23.2518 11.8788 8.5063
Pd 18.3836 11.1081 3.93626
Au 10.6507 4.55783 15.406
Pd 13.4376 12.5529 11.2185
Au 23.6369 8.17779 14.86
Pd 25.559 19.2235 15.0801
Au 2.66346 16.0033 10.6966
Pd 22.7266 7.92876 21.5522
Au 11.3611 13.393 13.5445
Pd 10.7994 25.1244 18.7565
Pd 9.81881 10.4319 9.12895
Au 23.9072 6.50786 19.5343
Au 6.98323 13.8464 8.19755
Pd 14.3587 27.7783 19.8148
Au 13.6275 15.762 28.0545
Pd 6.85133 5.54778 13.7772
Au 13.4071 15.1026 1.43902
Pd 11.7896 24.3404 16.3477
Au 21.7215 27.0945 10.7944
Pd 7.30297 12.9097 21.6788
Au 24.7574 14.0694 9.52763
Pd 15.8237 18.2133 7.49176
Au 11.447 4.85963 20.5153
Pd 18.2209 12.5753 6.22163
Au 23.2987 6.02566 16.8738
Pd 20.1657 17.8754 6.72188
Au 16.3469 7.21655 5.63113
Pd 20.2635 24.7318 21.9342
Au 5.11317 16.5263 11.9545
Pd 18.1497 12.4753 14.9931
Au 20.0542 5.65332 16.2286
Pd 16.3167 9.04038 3.74484
Pd 8.1879 14.5682 23.5786
Au 4.56518 19.7402 14.0205
Au 27.4758 21.3423 14.8081
Pd 13.6115 14.6878 13.1029
Au 4.01141 12.9718 18.5232
Pd 11.3987 7.13605 18.9174
Au 7.4979 11.1354 8.04208
Pd 17.531 10.6527 17.1055
Au 15.0424 10.2517 18.1976
Pd 15.7414 5.60383 7.67596
Au 14.3396 10.5038 9.39218
Pd 21.0327 20.7905 14.4915
Au 9.88778 9.60389 3.82166
Pd 19.5589 14.7633 15.2986
Au 11.6977 14.5413 10.7886
Pd 6.84921 17.594 10.3224
Au 19.1876 26.0218 14.3876
Pd 13.8738 23.7343 17.8978
Au 7.32844 13.0272 5.60823
Pd 12.8878 16.5376 3.59851
Au 5.24784 9.65031 8.58965
Pd 22.2491 14.4055 8.40106
Pd 20.0349 22.3023 12.1099
Au 5.26678 15.5855 9.33932
Au 20.2281 12.2797 13.0939
Pd 3.42891 16.6226 16.7202
Au 13.0247 26.3991 17.8967
Pd 21.9652 27.117 17.5352
Au 9.22522 20.449 13.3625
Pd 15.6556 25.7803 17.1696
Au 13.1982 18.0164 6.20764
Pd 20.0129 16.1827 4.6037
Au 15.9285 8.56741 25.5899
Pd 8.86743 22.8972 12.5085
Au 14.7263 21.2741 23.6077
Pd 9.97939 7.87288 9.0317
Au 19.7575 10.8379 24.7986
Pd 16.1941 29.2227 12.1542
Au 10.3691 20.284 10.2535
Pd 17.6784 11.3722 12.497
Au 20.4446 12.5124 8.04012
Pd 12.7099 16.0896 17.8521
Au 18.5046 16.8268 13.2766
Pd 16.2715 11.8804 8.0571
