665
Atoms. Timestep: 20668
Pd 14.3443 11.3206 20.2441
Pd 16.1199 3.12402 15.721
Pd 14.7549 8.54289 6.8742
Pd 6.56524 24.0916 13.6685
Pd 20.6914 14.3581 7.8898
Au 8.03496 23.8455 8.80027
Au 13.0774 11.702 11.6141
Pd 7.95678 14.8224 20.9444
Au 7.08234 15.6707 8.95775
Pd 8.03655 18.8256 13.8351
Au 13.0197 5.66629 22.3616
Pd 22.2765 5.78318 19.5993
Au 12.7334 12.2682 3.33813
Pd 20.9312 16.4334 23.563
Au 5.20306 10.6804 10.2305
Pd 18.5048 18.1702 24.0223
Au 24.3207 7.07627 13.1576
Au 17.0406 13.2505 2.12518
Pd 10.4925 10.3072 5.28632
Au 5.56892 13.0979 21.1622
Pd 16.3804 16.3517 12.9166
Au 24.793 19.1456 16.0629
Pd 26.6122 9.76754 16.0691
Au 11.3882 22.1237 14.581
Pd 14.529 10.2089 9.10736
Au 13.9789 9.43126 18.3743
Pd 8.72939 4.07121 12.2006
Au 22.9711 17.4438 25.7065
Au 7.78829 22.5077 11.2768
Pd 5.44131 12.265 14.8113
Au 4.97324 12.6118 12.1191
Pd 18.3838 11.6652 25.1853
Au 15.8466 4.4794 10.9874
Pd 22.8943 16.5632 18.8628
Au 26.9874 13.8754 12.6517
Pd 12.9436 5.62735 6.53679
Au 25.4907 17.2049 18.2416
Pd 16.2894 17.2661 4.42482
Au 26.2004 11.5907 21.2472
Au 16.9925 15.6002 15.5748
Pd 17.2341 7.55995 21.6616
Au 22.1971 25.1702 8.33083
Pd 5.18602 11.2037 19.0784
Au 6.33548 7.91024 20.209
Pd 12.9774 15.6381 9.94621
Au 15.744 11.6069 12.0726
Pd 17.5752 26.4209 13.8437
Au 26.9793 15.1231 17.1195
Pd 15.9819 7.00399 11.8925
Au 25.3958 22.5433 19.3793
Au 14.1696 22.8492 10.7268
Pd 21.3459 19.5034 8.93511
Au 6.83337 12.1024 17.0906
Pd 10.0144 16.4941 20.7824
Au 3.00097 18.523 14.0304
Pd 26.2763 19.886 18.1843
Au 24.4141 20.9801 10.8025
Pd 9.34744 14.6397 23.4505
Au 21.2232 3.94444 10.1474
Pd 18.7648 21.5424 9.73117
Pd 7.6778 12.7654 24.7483
Pd 14.8138 6.02227 15.7949
Pd 18.0659 12.6503 22.6902
Pd 12.6932 16.5886 24.7155
Pd 12.1073 15.2275 19.4825
Pd 9.08164 8.22953 24.6459
Pd 7.96201 10.712 9.15645
Pd 15.4692 7.29702 9.13034
Pd 11.7882 15.9568 6.59017
Pd 12.39 24.6974 17.9913
Pd 23.1555 22.6175 15.0399
Pd 12.9889 8.4072 22.8647
Au 20.5724 18.1783 6.58141
Au 22.7429 12.5716 16.7405
Pd 24.2916 14.6255 17.3893
Au 15.5169 5.33154 20.6585
Pd 16.6883 13.5145 18.6939
Au 8.47135 6.25069 20.1378
Pd 12.2691 18.3946 21.1534
Au 2.29729 15.8867 14.3062
Pd 6.76117 8.01857 22.9404
Au 3.31736 16.7313 11.8445
Pd 18.7799 16.4753 5.22187
Au 25.2043 18.6101 11.7907
Pd 13.5182 3.70588 15.3155
Au 19.3469 17.798 21.5243
Pd 26.7003 10.5969 18.7221
Au 16.4589 15.8282 6.78119
Pd 12.2973 22.1243 17.1357
Au 22.3011 9.82765 15.5874
Pd 12.9377 27.2138 13.5388
Au 10.0505 22.208 9.72137
Pd 18.6896 15.8641 25.2389
Pd 20.3671 10.7467 4.25858
Au 16.0911 17.066 25.0748
Au 21.7551 20.2296 25.7536
Pd 20.0291 13.8031 24.3106
Au 20.9759 19.266 23.4231
Pd 21.5923 11.8323 8.51723
Au 13.3018 11.5953 16.6165
Pd 18.8223 15.2375 22.4098
Au 20.3845 11.3818 23.3637
Pd 2.60276 17.8085 16.8559
Au 7.80679 19.643 20.4093
Pd 9.96749 23.4469 18.2126
Au 8.38864 19.0459 24.369
Pd 12.2393 12.3593 5.95287
Au 9.16656 4.96929 9.74235
Pd 17.0631 5.13209 8.53543
Au 6.27253 19.506 22.7278
Pd 10.2221 18.7462 19.4451
Au 11.7552 17.5758 4.30661
Pd 8.75375 18.5998 17.2739
Au 25.4332 13.5446 23.8761
Pd 18.6808 14.1024 6.19375
Pd 14.6145 15.1642 23.4322
Au 11.2081 6.7812 23.9676
Au 10.3928 5.2112 18.7026
Pd 14.0385 19.097 8.9521
Au 22.3967 10.0455 24.5509
Pd 10.7949 24.4708 15.8048
Au 19.6432 22.6736 12.0068
Pd 11.4805 17.7101 8.58504
Au 16.7301 20.863 7.17185
Pd 10.9581 10.455 12.6313
Au 11.6114 22.6288 11.8744
Pd 14.5299 18.3468 13.516
Au 12.0424 13.8989 23.9156
Pd 17.8872 10.6092 3.20388
Au 11.7478 7.86389 5.73286
Pd 15.9803 9.47785 4.73457
Au 17.9725 4.93761 21.5744
Pd 15.5868 8.73809 16.1632
Au 14.0419 16.7607 7.85213
Pd 8.29128 13.3006 8.20396
Au 24.9804 12.021 12.2924
Pd 26.8721 14.0859 21.656
Pd 15.7837 23.3831 6.70334
Au 14.1832 9.14877 11.603
Au 23.9889 18.486 9.38359
Pd 13.2892 27.2163 10.9432
Au 17.054 8.31185 24.4921
Pd 21.1513 19.7698 18.2858
Au 11.7603 26.4962 19.853
Pd 9.77345 5.50502 14.2189
Au 3.61512 19.5021 18.7853
Pd 16.441 16.0234 2.05203
Au 6.16569 11.5181 7.4353
Pd 9.79346 11.0069 20.5719
Au 15.5939 27.1393 12.2183
Pd 20.2994 5.91976 13.9501
Au 20.4501 17.845 25.9764
Pd 21.0987 25.6529 18.6022
Au 27.4599 15.9318 14.4868
Pd 18.1262 14.2264 8.8762
Au 18.3522 12.2471 13.7885
Pd 22.4244 11.6687 11.1811
Au 26.3768 18.377 14.0929
Pd 9.77969 8.39427 19.0294
Pd 17.8321 16.5872 10.6625
Au 16.4867 21.092 19.5555
Au 25.8338 18.7628 22.7746
Pd 16.265 19.9752 26.8086
Au 14.6496 11.314 6.40957
Pd 19.0262 21.513 18.2364
Au 7.08554 5.07171 14.076
Pd 17.5995 17.4639 17.3194
Au 16.3651 8.99157 19.4573
Pd 20.7792 23.2156 19.7031
Au 16.4312 26.1962 19.1967
Pd 18.7369 25.0112 19.7551
Au 16.5271 9.32431 13.3808
Pd 20.4745 15.7275 20.1323
Au 7.39969 21.6021 13.8036
Pd 25.2496 20.3224 20.5997
Au 5.20995 18.3983 20.5798
Pd 22.7986 15.079 15.0181
Au 14.3499 21.2335 5.65516
Pd 12.0499 21.9852 7.21473
Au 7.63758 17.0987 19.4429
Pd 20.2867 22.2011 15.3279
Pd 14.2746 12.9859 25.1213
Pd 13.0788 15.827 16.8965
Pd 20.5268 17.5764 10.889
Pd 21.7459 7.87433 13.3446
Pd 17.1388 18.3099 14.8092
Pd 22.3977 5.98475 9.08961
Pd 6.9598 24.9747 11.1291
Pd 22.405 17.5415 16.3702
Pd 21.8213 18.2449 20.6493
Pd 19.7665 4.60159 19.3493
Pd 19.1141 6.97304 23.5491
Pd 17.7152 12.958 16.2621
Au 24.6755 12.4431 19.1774
Au 13.3789 24.0901 15.2374
Pd 12.4997 12.0238 8.84941
Au 8.08023 9.55803 6.68633
Pd 22.3248 6.50031 22.1318
Au 10.6936 2.93402 10.8361
Pd 7.36637 16.0904 14.2696
Au 19.9602 6.58332 21.1088
Pd 16.9504 19.0583 12.0267
Au 9.46062 10.68 25.7834
Pd 14.0444 25.1502 20.1648
Au 25.4509 21.372 23.0844
Pd 12.1144 14.7591 4.17471
Au 11.6647 13.9708 11.6084
Pd 6.48666 21.9661 7.43791
Au 3.99378 10.5361 16.3198
Pd 6.30582 15.2641 11.5126
Au 4.28193 15.2546 9.79707
Pd 14.4886 14.5165 11.9092
Au 5.92197 19.1764 7.6503
Pd 17.3979 7.05839 14.7396
Pd 20.5831 7.86675 8.82857
Au 12.2766 24.8945 10.4342
Au 5.19291 8.66914 17.8902
Pd 14.1587 24.8957 12.5251
Au 24.2539 11.9244 9.16949
Pd 7.7971 11.5666 11.6781
Au 17.396 2.87978 12.5873
Pd 21.7356 21.5657 10.596
Au 7.7478 24.7758 18.3888
Pd 22.5835 7.81232 7.11691
Au 22.8328 23.0966 6.77284
Pd 20.1417 3.66084 12.5389
Au 6.194 7.43929 13.2579
Pd 22.4256 12.3328 14.1394
Au 18.9178 15.5114 2.7334
Pd 5.89356 17.8103 10.1132
Au 23.9467 23.0104 21.6256
Pd 22.4738 14.0742 9.85733
Au 23.2697 14.186 12.4799
Pd 10.5616 13.7016 21.2635
Au 4.99593 16.7107 7.59882
Pd 9.99606 18.0601 6.26342
Pd 18.4802 9.64172 5.75818
Au 20.2847 12.7723 18.1057
Au 22.3767 25.0292 20.8991
Pd 3.4293 10.9491 13.5566
Au 25.8672 9.24913 13.3765
Pd 23.4535 17.7085 13.8196
Au 6.06441 8.95543 8.35691
Pd 7.09933 20.6408 16.167
Au 20.577 13.2983 12.5236
Pd 12.7077 5.4325 17.2364
Au 6.90095 5.85245 11.0978
Pd 19.0077 8.89174 20.0553
Au 16.8642 21.8705 12.0244
Pd 20.3491 22.7708 5.78449
Au 17.6682 26.7281 10.4729
Pd 16.392 20.3082 9.75072
Au 4.84985 22.0996 14.9621
Pd 23.3782 22.9336 12.2996
Au 14.8537 4.05729 17.9752
Pd 24.0051 13.3013 21.7398
Au 9.47306 14.3907 18.7714
Pd 14.0321 20.8272 23.5552
Pd 18.1694 5.53905 12.3734
Au 21.8611 8.76944 4.86044
Au 5.23588 16.8536 17.9446
Pd 7.55698 9.89307 18.782
Au 19.4581 8.32845 3.72551
Pd 5.82418 6.77145 15.9136
Au 12.5178 16.3112 12.6036
Pd 9.5985 15.4495 12.9905
Au 13.9582 27.2011 18.4006
Pd 23.9531 6.07017 17.42
Au 18.9002 8.16294 12.5653
Pd 9.45403 9.27125 10.7225
Au 16.2825 14.2799 21.2455
Pd 13.5248 13.8163 21.2674
Au 25.3255 15.9795 12.8188
Pd 13.2016 10.1362 14.1502
Au 10.7912 26.9694 11.8774
Pd 10.9489 14.1492 8.92108
Au 4.94282 21.7291 17.7919
Pd 12.973 8.16011 16.2546
Au 6.8289 8.68093 10.9643
Pd 14.0109 13.5398 18.6545
Pd 24.2838 7.24327 20.2324
Au 4.00698 19.3848 11.6756
Au 18.1437 7.03492 10.0942
Pd 22.5028 11.063 21.72
Au 8.22142 12.0185 5.67968
Pd 17.7268 6.42202 19.2872
Au 10.3863 20.0689 8.01092
Pd 10.6971 20.479 5.37663
Au 18.7425 20.8398 23.0959
Pd 6.26403 19.3632 18.2924
Au 13.9584 13.0113 27.7956
Pd 25.1109 14.1278 10.5178
Au 17.0249 15.3263 27.377
Pd 10.6163 16.5962 17.7607
Au 18.4762 22.4932 20.8339
Pd 21.5782 4.76836 17.3061
Au 22.5351 5.17995 12.2413
Pd 18.3549 18.1525 3.10503
Au 23.214 18.3629 6.90687
Pd 19.8349 25.8554 15.3047
Au 20.0199 24.6959 22.0329
Pd 24.6257 11.1472 14.9062
Pd 23.0143 5.38392 14.8519
Pd 5.64433 17.4882 12.8436
Pd 19.0344 13.6423 26.7969
Pd 24.352 10.4251 17.4026
Pd 7.87869 20.766 9.16989
Pd 7.40366 17.2479 6.38268
Pd 16.1475 13.2221 7.47511
Pd 10.6443 4.78765 21.3618
Pd 14.4976 13.7058 5.23148
Pd 20.2245 17.3732 18.1185
Pd 19.4985 23.9803 17.2731
Pd 9.6547 24.6761 10.9214
Au 25.8813 16.6107 10.2185
Au 16.1264 13.7219 13.832
Pd 21.5709 21.2156 13.2857
Au 9.26723 22.3257 6.96513
Pd 22.7608 15.7091 21.5444
Au 10.8188 8.69307 14.7106
Pd 17.88 18.5771 6.42528
Au 25.66 8.15457 18.1009
Pd 13.4724 6.46772 10.6737
Au 13.2311 9.89828 4.55628
Pd 14.3067 22.6782 19.0647
Au 18.1205 9.92833 22.6874
Pd 10.2345 8.82988 7.99226
Au 17.9671 23.6822 23.2896
Pd 8.08833 12.5026 22.1891
Au 19.0945 12.9809 3.73528
Pd 9.5067 11.9221 17.6621
Au 7.90022 10.3183 23.6461
Pd 16.0613 4.94082 13.8156
Au 14.2981 15.7309 14.5313
Pd 23.2837 23.9192 18.6587
Pd 6.00386 10.252 13.1669
Au 4.19487 12.9195 17.3285
Au 17.9183 17.9279 26.9751
Pd 11.6032 24.9019 13.2691
Au 4.20935 8.82933 11.9166
Pd 8.23551 7.42823 15.0451
Au 11.9124 11.8082 26.091
Pd 10.0793 23.2354 22.4394
Au 19.6946 8.55339 15.1796
Pd 15.4607 11.3528 14.8772
Au 18.5834 3.92913 10.3213
Pd 18.7352 18.9032 9.29716
Au 25.4228 16.0489 22.6003
Pd 19.4381 20.6354 7.28362
Au 14.2726 10.6466 26.6854
Pd 5.91193 14.6078 16.0681
Au 15.6041 6.04479 6.54034
Pd 11.2073 5.29811 11.8362
Au 20.2462 20.3933 20.7359
Pd 22.263 11.0589 19.0288
Au 24.6608 11.043 23.3138
Pd 7.57393 21.9056 18.5018
Pd 19.6807 9.31698 24.9885
Au 24.815 9.79277 10.8097
Au 10.1414 11.4586 7.67319
Pd 12.232 20.8368 25.7838
Au 18.5956 23.8591 14.0543
Pd 23.2429 13.5271 7.24016
Au 5.66587 21.192 20.4166
Pd 13.8879 22.1735 13.3692
Au 18.9784 16.542 8.0539
Pd 21.3959 15.1498 26.0372
Au 19.8509 25.1112 7.26534
Pd 14.4237 21.5748 8.2981
Au 13.2771 3.47034 10.9196
Pd 15.9494 23.6247 14.234
Au 11.7943 23.2795 20.1534
Pd 15.8311 18.6134 2.2318
Au 15.3678 9.5663 22.2805
Pd 17.984 8.17545 17.3422
Au 10.666 18.6637 25.8914
Pd 4.39298 19.5976 16.2562
Au 9.67213 25.0141 20.3942
Pd 10.2284 16.0782 25.9285
Pd 12.2267 11.689 21.9793
Au 14.0231 18.8879 25.6461
Au 28.0131 13.518 15.276
Pd 19.7243 19.9329 11.6272
Au 18.9783 20.2025 25.8036
Pd 24.4463 17.7561 20.7166
Au 12.1336 24.9655 22.1415
Pd 7.63974 7.38051 17.7551
Au 7.65115 17.2454 22.2432
Pd 20.9738 18.7009 14.0563
Au 13.9599 19.0809 4.08095
Pd 12.1442 9.61046 20.4071
Au 21.3046 22.2831 22.195
Pd 25.0391 16.4793 15.6196
Au 14.6194 21.853 25.8894
Pd 19.743 5.47358 8.3908
Au 23.1742 16.4944 11.0735
Pd 11.8012 12.2191 19.2975
Au 21.8562 8.59571 20.3133
Pd 21.1125 13.5923 21.8931
Au 17.0028 11.4103 20.5898
Pd 16.7908 14.6054 4.34231
Pd 10.6264 9.54779 22.9222
Au 24.4294 8.12893 15.5936
Au 13.4279 20.2455 15.3652
Pd 15.2187 12.3164 22.686
Au 10.8135 24.2415 8.24275
Pd 17.0805 11.8054 9.60959
Au 25.0369 15.0966 19.974
Pd 12.0322 19.0695 23.7159
Au 21.9761 24.6304 16.3144
Pd 14.1839 7.6583 20.6667
Au 18.7702 15.037 17.684
Pd 10.4171 18.0431 12.887
Au 22.4969 19.1871 11.6862
Pd 19.9867 7.31341 6.20244
Au 8.12401 17.2754 11.5389
Pd 17.7192 7.69246 7.57918
Au 12.4082 22.9517 24.046
Pd 15.219 18.7423 6.44325
Au 11.7242 19.0297 17.1189
Pd 14.0461 16.3555 5.25952
Au 14.3304 7.70042 13.8601
Pd 23.153 20.2217 22.1629
Pd 12.1837 20.011 13.0028
Pd 8.72989 14.14 10.7916
Pd 8.94302 22.5361 15.8761
Pd 8.14107 19.9564 6.45745
Pd 21.2142 16.0323 13.0957
Pd 17.1765 11.9919 5.3666
Pd 7.86564 16.4004 24.7957
Pd 12.9581 5.10638 19.8286
Pd 18.3075 23.0518 7.4997
Pd 9.93325 19.2902 10.5502
Pd 21.6503 7.53574 24.4292
Pd 20.2411 13.9935 15.2278
Au 9.0558 14.0256 15.6259
Au 15.1374 25.5563 9.92458
Pd 15.2562 6.7875 23.1379
Au 8.53526 9.38794 13.2834
Pd 4.22558 8.5727 14.6148
Au 6.48409 9.50636 15.7612
Pd 14.3408 20.1135 20.902
Au 10.0638 26.1997 17.7107
Pd 17.0155 5.31943 16.9426
Au 14.4378 8.48612 25.1008
Pd 20.3568 7.09547 18.4782
Au 24.1944 20.4517 13.6422
Pd 13.2828 12.9917 14.0386
Au 7.52982 14.6504 5.98709
Pd 7.0106 19.8373 11.5689
Au 17.2939 25.041 16.1581
Pd 10.1865 21.0948 24.1838
Au 20.9688 3.62745 15.0901
Pd 13.3324 10.7513 24.0595
Au 20.9074 9.42177 10.9616
Pd 22.8306 21.4177 19.7705
Pd 11.7972 4.77545 9.07306
Au 8.16942 7.37867 8.96511
Au 19.4045 19.4721 16.2328
Pd 20.0531 15.0612 10.5895
Au 2.95805 13.3019 14.8795
Pd 20.1579 11.4395 15.8278
Au 11.6929 9.09692 25.3961
Pd 19.712 16.6929 15.5034
Au 17.2257 3.76492 19.1501
Pd 8.34211 5.09227 16.5416
Au 27.0862 11.5191 13.9947
Pd 14.545 16.3452 20.714
Au 11.5406 13.6879 17.0652
Pd 10.382 16.346 10.532
Au 22.2159 24.3852 23.4945
Pd 9.038 9.52327 16.5335
Au 10.1681 13.8553 6.30972
Pd 10.2535 11.8939 10.4039
Au 20.9312 11.8473 26.0086
Pd 16.9515 19.2053 21.5787
Au 8.9987 6.95808 12.136
Pd 21.6666 16.7584 8.72146
Pd 16.616 19.9573 4.42345
Au 8.87001 3.09133 14.6682
Au 14.6 15.2975 26.3861
Pd 23.6673 19.1817 18.5382
Au 27.5467 15.8727 19.6581
Pd 17.8543 22.1177 5.11908
Au 14.2575 20.1273 17.9939
Pd 15.8055 18.3238 19.2797
Au 8.62941 8.76676 21.3757
Pd 21.8263 20.5894 6.1827
Au 20.1952 26.4759 9.55895
Pd 18.4305 10.7047 11.7209
Au 19.6159 16.025 27.807
Pd 14.7219 12.9009 9.82426
Au 7.70908 12.3968 19.6271
Pd 9.88342 12.8141 13.1374
Au 14.3922 4.81016 8.66882
Pd 23.5473 8.72364 22.5174
Au 12.17 6.13947 14.699
Pd 22.646 12.7354 24.1081
Au 23.4755 20.9391 8.22757
Pd 12.4817 9.95462 7.21175
Pd 9.66957 21.5758 20.3232
Au 6.44056 10.4102 21.3457
Au 12.0139 9.58797 10.0328
Pd 11.5328 14.9004 14.7135
Au 6.4898 23.4787 16.4247
Pd 18.6539 15.0085 13.3743
Au 16.3327 24.1498 21.0824
Pd 20.5155 9.56579 17.7085
Au 5.66407 23.1256 9.7228
Pd 12.1629 14.487 26.6021
Au 16.8349 14.0885 24.5825
Pd 14.9802 13.7443 16.2627
Au 10.1793 17.1383 23.5196
Pd 24.458 9.84171 20.1494
Au 10.3827 26.9061 14.6763
Pd 12.8079 7.49187 8.32839
Au 11.8286 21.1676 22.0171
Pd 13.5554 14.149 7.66108
Au 20.265 22.4588 24.6533
Pd 5.16794 20.5682 9.67135
Au 14.9618 17.3983 10.9352
Pd 20.716 9.83988 7.01289
Pd 23.0232 7.71326 10.944
Au 14.2021 7.31713 4.66009
Au 21.5382 24.3761 10.8297
Pd 16.7728 19.9984 17.0318
Au 3.74746 14.3122 19.514
Pd 18.9216 24.2381 9.87856
Au 10.3324 6.23542 7.41445
Pd 12.6015 17.1667 27.2123
Au 18.9006 17.6036 12.9812
Pd 18.6053 20.6015 13.8861
Au 23.6019 23.2588 9.48942
Pd 9.70768 16.9995 15.2743
Au 5.20434 21.9663 12.1504
Pd 18.3922 4.12895 14.7059
Au 11.4157 9.97044 17.6499
Pd 12.458 18.3337 10.9814
Au 15.2842 17.5673 27.6556
Pd 11.8495 7.87568 12.4009
Au 18.3303 10.9542 18.2765
Pd 20.8887 22.7304 8.44782
Au 7.63356 23.3056 20.7452
Pd 13.6961 5.15193 12.8983
Pd 24.0904 15.8059 8.43382
Pd 9.39402 15.9394 7.7917
Pd 10.2159 12.0084 23.6613
Pd 16.3856 12.6585 26.7819
Pd 6.60565 14.6956 23.1893
Pd 10.3618 6.95309 16.717
Pd 22.8238 9.57654 9.02969
Pd 9.84966 13.4771 25.8782
Pd 26.0862 12.4491 16.7882
Pd 21.7661 7.20091 16.0918
Pd 17.337 13.8321 11.3888
Pd 15.7321 15.2717 9.45361
Au 16.4376 23.1208 9.40544
Au 22.2905 20.1762 15.8176
Pd 16.4555 17.8107 8.66589
Au 8.18106 11.528 14.819
Pd 12.6088 19.0675 6.53586
Au 19.7175 12.4054 10.1636
Pd 13.9306 22.8562 21.7055
Au 18.4489 19.0819 19.2398
Pd 16.6422 9.25939 10.4705
Au 10.2202 12.7428 3.97336
Pd 14.4931 20.2236 11.585
Au 12.6121 26.6527 16.1651
Pd 17.685 22.2337 15.9791
Au 17.2284 25.4509 8.11334
Pd 17.6661 16.3027 19.8863
Au 16.9024 24.5846 11.8514
Pd 16.9709 23.4732 18.4168
Au 3.11153 15.26 16.9671
Pd 9.618 15.9058 4.7908
Au 20.5775 10.5001 13.3595
Pd 23.3012 9.85027 12.9614
Pd 13.1951 17.6885 18.814
Au 8.32801 18.1672 8.75153
Au 22.3895 13.8201 19.5042
Pd 20.0136 11.2414 20.6374
Au 14.521 14.2261 2.64093
Pd 12.2133 7.43337 18.7891
Au 3.47681 18.0149 9.37836
Pd 3.13978 16.8987 19.4114
Au 21.3639 24.1719 13.6669
Pd 19.5439 25.6355 12.1802
Au 15.1828 23.5714 23.9224
Pd 20.6425 8.91901 22.4907
Au 14.8521 17.9278 16.3553
Pd 19.4011 5.98211 16.3875
Au 23.3582 15.2346 24.1716
Pd 22.9655 8.35755 18.0691
Au 27.2485 13.24 19.141
Pd 9.64066 20.8707 12.6021
Au 15.4869 15.8485 18.1337
Pd 23.2679 17.7695 23.1214
Au 11.0482 7.29008 21.231
Pd 14.4126 18.0748 22.9021
Pd 16.7247 10.1899 7.57951
Au 20.8336 14.8289 4.49467
Au 9.25771 23.6137 13.4201
Pd 18.72 26.6425 17.6621
Au 13.8899 16.7866 2.67674
Pd 16.027 10.7837 24.672
Au 8.2722 25.3229 15.6318
Pd 21.0858 12.5526 5.92631
Au 27.3421 17.8605 16.5402
Pd 9.81271 19.3318 22.0791
Au 8.47778 26.1146 13.0021
Pd 5.46085 19.7879 13.9179
Au 23.1204 10.7325 6.56332
Pd 21.4443 15.106 17.2798
Au 24.2098 19.6508 24.7616
Pd 2.79644 14.1184 12.1812
Au 15.7824 11.2467 17.624
Pd 12.283 17.7054 14.9152
Au 10.9608 11.5473 15.25
Pd 18.9501 11.8794 7.49312
Au 18.8469 13.6194 20.2225
Pd 6.6594 18.0533 15.901
Pd 8.90662 6.40888 22.7271
Au 20.8567 17.5399 4.02982
Au 6.25718 13.0808 9.85428
Pd 10.7749 7.10256 9.9877
Au 17.3763 7.2596 4.97604
Pd 17.7472 10.2716 15.6516
Au 10.823 3.96067 16.188
Pd 25.1983 13.8318 14.6684
Au 16.6833 16.7205 22.459
Pd 21.6764 22.2354 17.4585
Au 11.4848 3.31081 13.52
Pd 26.9693 18.3135 20.297
Au 14.7565 2.71121 13.1277
Pd 24.2573 21.5482 17.2707
Au 20.522 6.35978 11.1106
Pd 16.3334 19.6825 24.2113
Au 13.5958 24.1 8.19152
Pd 15.0551 22.2669 16.4723
Au 4.8003 14.8655 13.6424
Pd 9.91083 20.8719 17.7012
Au 12.3073 20.8473 9.91906
Pd 7.31385 13.6245 13.3563
Pd 19.0249 3.43959 17.1224
Au 15.061 26.2487 14.7993
Au 19.5168 19.9908 4.68013
Pd 4.5402 16.8603 15.301
Au 23.0873 22.0321 24.2681
Pd 7.9624 15.9608 17.0818
Au 17.1725 22.0755 25.1838
Pd 5.45516 14.0845 7.52628
Au 12.2301 15.9539 22.1681
Pd 6.31599 14.4547 18.7247
Au 16.2294 27.4254 16.8523
Pd 18.9175 9.79712 9.12807
Au 5.40261 15.8316 20.9672
Pd 15.3088 11.7353 3.5167
Au 8.03229 21.4149 22.5887
Pd 10.0861 19.8447 15.1382
Au 15.9285 20.6644 14.3226
Pd 16.2805 21.6942 22.323
Au 22.3126 15.9343 6.26647
Pd 15.066 6.80079 18.303
Au 14.9186 24.9189 17.3464
Pd 12.1104 20.6386 19.4144
