665
Atoms. Timestep: 20906
Pd 14.0052 16.7084 9.74671
Pd 18.2249 12.9888 19.5282
Pd 13.0009 5.64853 8.48036
Pd 4.23881 10.1886 18.426
Pd 14.6149 14.1866 15.5527
Au 4.27442 18.5646 18.7858
Au 25.42 11.8627 14.2091
Pd 20.7179 22.7068 15.1876
Au 15.5505 7.46661 14.1665
Pd 16.5863 9.38097 7.45415
Au 23.8874 24.2963 19.7878
Pd 24.8078 5.89721 17.1742
Au 15.4124 25.9247 7.69632
Pd 21.7049 18.519 12.953
Au 21.2889 27.7201 11.4131
Pd 24.7073 14.1479 9.06786
Au 22.4391 4.69078 20.9419
Au 22.1223 2.78181 14.0404
Pd 8.91369 16.0034 5.40973
Au 19.5847 12.6426 17.211
Pd 5.51108 10.3863 20.8258
Au 22.2159 17.8198 21.9809
Pd 24.5326 13.2062 12.0765
Au 19.4506 9.13205 24.732
Pd 6.86929 11.0758 15.9498
Au 15.9981 11.9936 27.1232
Pd 21.2843 20.1599 17.6709
Au 13.0462 24.5886 13.3282
Au 6.84263 10.5299 23.1523
Pd 21.3021 18.5223 8.7286
Au 5.02953 12.0942 11.6678
Pd 6.67868 11.0583 18.5375
Au 6.55291 7.64125 11.2603
Pd 10.4122 8.88005 19.5461
Au 18.5282 14.6801 24.0283
Pd 16.1911 18.3824 14.1079
Au 13.5192 19.2566 13.8202
Pd 16.7539 23.0196 11.746
Au 19.9642 9.54895 13.462
Au 12.4263 16.2339 2.57634
Pd 9.1195 8.85693 9.74653
Au 23.6599 22.8691 10.7666
Pd 11.0005 11.2914 18.545
Au 13.3715 10.003 11.2607
Pd 19.527 18.3555 6.78072
Au 18.3963 11.7854 14.8513
Pd 18.8348 16.765 3.98034
Au 5.87927 12.8587 21.8442
Pd 22.023 10.8757 17.676
Au 20.7487 15.5454 5.39695
Au 20.4619 25.6036 12.663
Pd 10.7342 12.1765 4.36444
Au 20.5143 14.9285 25.8151
Pd 7.65835 4.08314 14.8838
Au 4.04874 14.5496 15.754
Pd 13.075 21.3229 6.48102
Au 10.5377 9.22226 24.4067
Pd 13.2947 22.0719 14.1196
Au 16.9894 3.41012 15.522
Pd 16.6316 17.6303 2.64908
Pd 11.1847 13.2817 8.85504
Pd 19.8218 22.3609 17.8538
Pd 9.30165 6.13867 15.6301
Pd 16.1989 13.4599 17.8234
Pd 13.8176 11.3745 8.9686
Pd 15.22 10.5076 21.9926
Pd 15.2518 22.3716 19.6836
Pd 8.50749 15.0209 17.5669
Pd 11.385 10.5189 9.43817
Pd 23.5559 6.8482 19.3182
Pd 11.3712 13.8226 22.2341
Pd 4.30505 11.9135 16.4898
Au 7.45488 6.98805 8.79907
Au 22.5517 9.6623 6.63028
Pd 11.3807 10.4885 13.0861
Au 17.8893 22.4996 8.8247
Pd 20.1802 20.8435 7.89863
Au 21.8315 8.19463 23.9272
Pd 15.6448 8.62144 11.6776
Au 5.47035 5.08364 13.6142
Pd 12.8477 21.6949 9.26252
Au 17.9699 23.0805 15.7923
Pd 22.1207 17.6752 17.8116
Au 14.0694 24.9435 5.44014
Pd 15.3084 11.5289 6.73496
Au 26.0452 7.67894 15.5349
Pd 11.2578 23.5059 19.5178
Au 8.07098 8.15744 24.1082
Pd 14.8801 22.3548 4.78685
Au 26.6054 14.3777 10.9174
Pd 9.29764 17.9474 13.6968
Au 25.8202 19.5558 19.0567
Pd 14.6946 17.716 24.2376
Pd 13.6333 24.3042 18.7561
Au 5.44172 21.4767 11.2095
Au 13.1098 15.9933 26.4058
Pd 9.15409 18.0109 24.2053
Au 16.7767 4.78013 18.0309
Pd 21.2826 20.6219 10.5567
Au 8.41084 15.3913 24.6462
Pd 26.906 14.0186 13.5669
Au 17.2112 10.5866 20.12
Pd 21.5113 8.50372 18.6274
Au 4.61978 16.4721 10.928
Pd 18.2728 17.6813 20.4909
Au 11.4517 26.9278 10.1165
Pd 14.3938 25.6322 16.5562
Au 9.09285 9.42063 22.0792
Pd 18.1143 15.9769 26.5566
Au 22.9524 21.2696 8.6112
Pd 21.6575 22.6104 6.58526
Au 16.846 8.21371 21.8772
Pd 14.0241 7.98053 21.8123
Au 10.1676 4.52792 17.5836
Pd 16.0354 15.6133 24.9667
Pd 11.1966 24.0958 8.86486
Au 11.1682 15.646 13.1633
Au 18.2337 10.7053 26.4777
Pd 7.14835 12.8252 9.82308
Au 3.97978 6.4198 15.4571
Pd 15.5312 17.4887 21.4287
Au 10.0279 25.6068 15.1143
Pd 12.1316 12.5877 11.2796
Au 24.2526 15.7033 11.2966
Pd 17.2767 19.498 11.8164
Au 17.2721 28.038 14.2601
Pd 21.6303 25.27 10.2107
Au 11.7332 13.5843 27.0555
Pd 17.4576 21.8613 4.55454
Au 22.2772 24.9765 14.8343
Pd 18.9703 23.3653 13.2731
Au 15.3448 20.1339 25.59
Pd 20.2302 4.52519 18.9244
Au 12.5973 7.23537 24.01
Pd 18.1222 6.21278 20.0375
Au 13.4653 3.05161 14.7812
Pd 19.9549 13.0338 21.8479
Pd 8.87384 4.49758 19.9137
Au 8.65905 23.0017 19.366
Au 25.4648 11.7549 9.73085
Pd 8.9255 10.8562 14.2354
Au 19.7133 6.14531 8.36487
Pd 14.9873 10.1866 13.6474
Au 10.0745 19.449 16.7116
Pd 14.8846 5.17866 15.6859
Au 15.4818 12.6586 4.22717
Pd 19.5113 15.0402 10.9234
Au 23.3773 6.85596 15.1049
Pd 13.5216 15.324 23.7133
Au 7.14695 13.8106 19.6004
Pd 21.3593 5.49501 10.3828
Au 9.43343 11.9885 23.3978
Pd 21.1204 11.4236 15.1992
Au 23.9287 26.8171 16.0189
Pd 13.0853 12.3147 16.9491
Au 5.61569 15.5761 20.7894
Pd 26.6059 10.2364 16.1951
Au 3.95452 19.881 16.4094
Pd 7.67762 23.1297 10.7618
Pd 23.4899 18.0078 15.2198
Au 9.96343 25.8281 19.9169
Au 5.27391 8.62074 9.16668
Pd 22.4607 15.0039 21.2884
Au 4.47474 17.15 16.4097
Pd 14.9426 14.808 5.84369
Au 12.4932 15.5934 7.90561
Pd 12.3177 18.8344 18.0295
Au 15.329 19.6991 5.67666
Pd 17.1758 19.0088 16.4634
Au 15.6918 23.504 14.2218
Pd 15.0869 6.79118 17.8823
Au 19.3326 20.4218 15.9226
Pd 7.68544 16.7248 7.56667
Au 4.47341 16.2637 13.697
Pd 12.8939 9.30051 25.7572
Au 18.7371 20.1295 24.6609
Pd 24.721 20.3499 14.5626
Au 12.697 10.0602 23.0643
Pd 20.235 12.5895 10.048
Au 16.6283 23.5818 22.0084
Pd 7.23324 19.7855 12.5384
Pd 23.3108 10.015 19.8572
Pd 16.0524 5.97054 11.9048
Pd 19.9543 12.0587 12.6289
Pd 10.8997 19.7546 25.3603
Pd 15.2879 8.789 19.6372
Pd 15.2078 9.15646 16.5426
Pd 17.5731 25.5994 13.0395
Pd 10.804 23.0586 14.1791
Pd 20.0194 16.3615 13.2633
Pd 15.0985 26.2504 14.1339
Pd 21.3237 27.1086 16.3416
Pd 9.13802 18.5896 8.79223
Au 16.1787 14.9552 10.9628
Au 24.6034 10.0625 11.7976
Pd 23.1391 19.8601 19.6579
Au 8.84967 6.80995 21.4922
Pd 6.37511 8.46512 17.6
Au 10.0186 8.89836 7.26416
Pd 12.9911 5.49587 21.4237
Au 5.72209 12.9875 14.3672
Pd 6.61661 19.4334 22.8705
Au 12.9901 8.25988 13.3577
Pd 20.7971 17.7968 15.4856
Au 20.1016 26.8627 18.7843
Pd 12.6187 16.0982 5.19893
Au 12.0022 7.22935 6.40248
Pd 17.3809 10.6154 12.6296
Au 21.4644 19.2053 24.401
Pd 17.0281 10.2555 24.0394
Au 14.6757 7.27727 6.81837
Pd 13.2446 9.60111 6.98921
Au 11.9046 17.5213 24.2891
Pd 11.1679 8.29483 11.3608
Pd 13.6225 5.65217 13.3433
Au 20.4997 16.183 19.7381
Au 9.84373 19.4 11.3465
Pd 10.806 6.15615 19.7747
Au 10.6929 17.7246 4.13167
Pd 5.39316 7.77751 13.6451
Au 11.4593 5.37709 10.6989
Pd 4.84986 9.31032 15.6877
Au 7.82343 6.4289 13.4303
Pd 24.9515 19.0735 21.5236
Au 14.415 28.7144 14.2747
Pd 5.2712 21.2178 18.4613
Au 10.503 16.9636 26.3725
Pd 8.24566 20.2736 14.9085
Au 18.4899 2.74421 17.82
Pd 13.5935 16.4501 14.3467
Au 25.3636 5.29318 14.3822
Pd 12.7336 9.42917 17.769
Au 6.01634 14.5688 7.48858
Pd 18.8684 24.4721 10.6881
Au 13.2454 28.3381 16.7095
Pd 8.63617 16.1792 20.0921
Pd 17.318 7.51618 24.426
Au 6.63796 19.2379 7.64347
Au 24.9103 24.8981 14.3731
Pd 3.30188 18.5043 14.2927
Au 10.2133 3.31968 15.0692
Pd 9.0629 23.2808 23.7579
Au 17.127 13.5009 6.46525
Pd 12.0455 14.1358 15.1376
Au 20.4944 3.9864 12.3897
Pd 20.9583 13.5648 19.3837
Au 18.2523 16.7041 15.463
Pd 21.8607 6.1831 17.209
Au 7.57227 25.4784 16.1124
Pd 7.4603 20.7317 20.0935
Au 18.1325 21.1917 21.9522
Pd 9.90118 15.6652 15.4506
Au 8.56221 23.6729 8.28302
Pd 15.4402 21.7765 7.54076
Au 23.0121 5.37256 12.7866
Pd 16.4778 12.9735 24.6561
Au 16.5008 3.65129 10.5356
Pd 18.4593 16.9079 9.2673
Pd 11.9235 5.21935 15.418
Au 21.1279 10.6087 8.58128
Au 25.7196 17.8127 10.3181
Pd 11.9306 17.9352 12.2191
Au 6.99162 22.0713 22.4377
Pd 17.0001 25.6001 15.8145
Au 13.1605 20.5425 3.76816
Pd 8.7963 18.7635 5.97807
Au 9.19386 4.21724 12.6406
Pd 14.3789 18.2222 16.2262
Au 12.1091 8.0695 8.9139
Pd 5.98162 14.5643 12.1966
Au 18.6086 27.6963 11.7586
Pd 16.3702 19.9051 20.3561
Au 15.5812 3.72423 13.244
Pd 9.84909 13.5042 19.959
Au 9.26356 25.2937 10.444
Pd 16.1032 12.964 8.88603
Au 8.79859 8.81237 12.5483
Pd 15.8301 16.1095 16.8268
Au 9.47033 13.9709 10.8643
Pd 14.5698 11.1576 24.7723
Pd 21.615 9.83729 11.1091
Au 19.5923 7.39782 15.1965
Au 14.7907 11.128 18.5326
Pd 10.1455 6.42337 8.44423
Au 23.9873 8.73317 17.3478
Pd 22.6601 11.3179 13.1073
Au 7.51697 25.4777 18.9515
Pd 13.2653 27.1438 12.2405
Au 6.74009 22.4599 13.3456
Pd 17.3381 6.8374 7.20874
Au 10.2455 16.3264 22.3342
Pd 7.45159 4.58193 17.6071
Au 10.1029 21.7178 9.69074
Pd 16.9629 26.3209 10.0873
Au 9.06216 6.41229 10.9309
Pd 22.1592 19.9265 6.38054
Au 19.9738 27.8847 14.0779
Pd 11.7087 18.0362 9.49187
Au 14.3657 27.1239 18.7684
Pd 12.7177 16.1714 16.8582
Au 6.00265 21.4932 15.7988
Pd 22.4269 8.46087 13.1824
Pd 14.8492 19.994 18.0827
Pd 6.79898 12.06 7.07794
Pd 26.1991 18.1207 14.9489
Pd 25.0877 22.0639 18.203
Pd 20.9108 6.66844 20.3853
Pd 14.5106 22.7395 16.6959
Pd 12.9129 10.1709 15.3012
Pd 24.2 9.61136 14.7754
Pd 24.241 24.4588 17.085
Pd 16.8969 18.1909 7.35856
Pd 15.2577 25.2156 11.7465
Pd 9.92388 15.8737 8.84207
Au 28.0834 11.6306 14.3248
Au 8.43201 23.0017 15.4234
Pd 20.4702 21.4289 20.565
Au 22.6076 27.3585 13.7365
Pd 21.386 9.14312 21.4255
Au 11.8533 26.2454 17.8078
Pd 17.3863 7.7438 9.80803
Au 5.05345 5.8992 18.0075
Pd 4.79101 18.7949 12.0726
Au 27.2939 17.906 17.484
Pd 12.9804 10.0323 20.3559
Au 5.17227 16.978 8.42981
Pd 19.3814 7.4225 22.5207
Au 17.3405 3.66195 20.3431
Pd 11.8022 3.81069 12.872
Au 16.4293 10.5037 9.90513
Pd 17.3731 11.0633 17.472
Au 7.2009 15.4688 9.94099
Pd 19.6772 4.52201 21.5129
Au 10.8232 14.2105 6.20856
Pd 23.2229 7.20857 21.8681
Pd 21.7878 13.8821 12.1253
Au 8.41648 13.3598 5.14252
Au 22.7581 26.3349 18.5095
Pd 22.8876 14.6882 6.93509
Au 20.7289 13.1361 7.351
Pd 14.8379 17.2654 12.1502
Au 20.5291 21.5778 23.3594
Pd 20.2847 16.0569 22.5202
Au 24.1903 18.9965 8.02693
Pd 16.1107 12.9852 13.5203
Au 13.251 13.1474 6.91932
Pd 6.63168 15.6206 15.2334
Au 20.5882 14.0759 14.673
Pd 12.2762 22.9841 4.63312
Au 23.0192 4.21084 18.4794
Pd 18.363 13.3682 26.5832
Au 26.3051 12.8284 18.7637
Pd 22.6658 15.721 15.9729
Au 11.0369 14.8645 24.7255
Pd 16.4681 17.8699 18.6588
Au 11.0728 7.33869 17.3329
Pd 20.7569 18.7983 19.9938
Pd 23.7369 17.2926 19.8827
Au 20.7914 24.4264 19.8561
Au 12.2464 24.0925 16.159
Pd 8.69985 24.3778 13.022
Au 19.5665 9.71075 17.0564
Pd 8.38009 13.3644 15.2504
Au 17.6718 16.8752 12.0262
Pd 21.0488 12.2798 25.9132
Au 8.84301 10.8083 5.78919
Pd 13.8527 14.0233 9.6052
Au 22.4544 17.3312 6.4548
Pd 17.7351 12.7539 11.0201
Au 4.679 12.6876 19.3176
Pd 12.7627 20.5162 16.1337
Au 15.4322 12.8704 20.4314
Pd 21.4785 24.424 17.2699
Au 7.11037 12.8885 24.4141
Pd 7.7038 8.90888 19.8231
Au 12.5696 25.9732 20.5188
Pd 7.3129 9.53059 7.8013
Au 25.1404 20.5732 10.2723
Pd 9.61176 21.8041 21.5943
Pd 19.4111 3.41833 10.0319
Au 27.2806 15.7836 15.6636
Au 20.8268 18.3613 4.54631
Pd 14.6964 8.61188 9.12783
Au 9.33798 13.0949 25.9421
Pd 24.3901 11.6551 16.6915
Au 6.2987 18.2378 20.4073
Pd 18.0652 3.01397 12.4824
Au 22.3791 16.3635 24.2464
Pd 18.0201 22.8647 19.7671
Au 17.4913 9.25291 15.1115
Pd 8.14154 21.1616 17.5194
Au 15.5724 25.4111 20.3875
Pd 15.9187 14.624 27.3689
Au 11.9128 12.1707 24.6203
Pd 20.644 22.964 9.28266
Au 7.01089 10.2714 10.6231
Pd 14.4157 27.2161 9.8399
Au 24.9807 15.6516 14.4551
Pd 15.0203 6.1141 23.3795
Au 22.2784 23.1068 21.7047
Pd 14.4061 17.2039 6.98204
Pd 15.8319 27.9571 16.4742
Au 11.0143 24.1861 22.0872
Au 23.0665 22.1866 16.4306
Pd 15.4249 20.6994 15.3796
Au 13.7834 23.8591 21.6524
Pd 20.0567 10.6105 6.06631
Au 13.3913 11.4405 27.2183
Pd 19.6967 17.3155 24.8036
Au 18.0354 7.84615 12.6357
Pd 6.40497 19.1433 17.3062
Au 13.8461 14.6099 12.4171
Pd 17.6383 16.9895 23.0412
Au 5.02434 20.5899 21.0158
Pd 26.8719 11.7916 11.9461
Au 4.83069 19.577 9.48818
Pd 12.6924 12.74 19.9983
Au 18.8717 21.5834 11.1234
Pd 5.99011 18.6351 14.7032
Au 4.29763 15.1504 18.3718
Pd 7.73507 8.61353 15.1611
Au 24.5657 21.7906 20.8054
Pd 9.19367 21.7183 12.5021
Pd 12.8318 21.6199 18.6085
Pd 6.86156 17.0749 12.7243
Pd 21.6162 16.5796 10.8631
Pd 26.3194 17.1496 20.0258
Pd 3.53301 7.93052 17.4909
Pd 15.8721 27.8591 12.0363
Pd 17.1508 6.63006 16.073
Pd 10.3593 16.911 17.7841
Pd 16.0244 15.4475 19.7662
Pd 18.835 24.8387 17.7891
Pd 11.2793 9.50806 5.03988
Pd 20.0083 7.82687 10.523
Au 23.2909 25.1474 12.2671
Au 6.7862 6.14564 19.9683
Pd 18.3076 15.0522 21.125
Au 23.3203 12.1183 7.75953
Pd 26.9211 13.0802 16.1764
Au 20.2358 11.0333 19.7016
Pd 19.7445 18.4781 11.172
Au 14.8456 2.95694 17.1362
Pd 13.5566 23.7404 7.6318
Au 21.7108 13.7883 23.712
Pd 18.3595 14.2841 13.1604
Au 22.4156 22.3466 18.9869
Pd 6.43955 10.2413 13.3428
Au 8.82441 20.6444 23.895
Pd 17.1995 18.1649 25.4328
Au 9.57899 11.2252 11.2485
Pd 11.23 11.4289 6.88679
Au 17.6867 4.53139 8.42263
Pd 15.5338 6.15957 20.5203
Au 11.7487 3.69835 19.6774
Pd 26.6582 16.5936 12.5831
Pd 6.5817 6.43048 15.8857
Au 12.6442 18.7881 5.77018
Au 23.1306 7.49615 10.8484
Pd 16.1631 15.671 13.9494
Au 10.5709 8.67587 15.0212
Pd 23.3341 13.483 14.5332
Au 25.5629 22.2121 12.6851
Pd 23.2342 22.7476 13.8342
Au 21.3476 5.76597 23.0822
Pd 11.0532 14.0314 17.6015
Au 22.6679 20.4624 22.2639
Pd 15.8543 21.0078 10.0165
Au 20.6836 25.0057 7.63547
Pd 16.2799 16.9833 5.09687
Au 6.45279 8.05121 22.015
Pd 10.8599 20.278 14.171
Au 15.37 17.2594 27.0043
Pd 8.52602 18.5778 18.7887
Au 15.5271 5.90853 9.17758
Pd 25.5839 22.6342 15.5084
Au 10.7873 10.8739 26.6402
Pd 11.5302 15.5526 19.8145
Pd 9.3038 26.9924 17.4857
Au 6.20608 21.9715 8.54596
Au 16.9163 21.5478 17.6026
Pd 22.8627 15.2374 18.5925
Au 8.75976 12.3471 17.7031
Pd 17.3479 12.4583 22.1883
Au 12.9354 13.7413 4.01195
Pd 20.3583 20.8753 13.175
Au 15.2528 3.92602 21.9974
Pd 23.9852 19.7003 17.1389
Au 21.3316 10.8207 23.6312
Pd 5.92008 14.9804 23.4292
Au 12.9573 21.307 26.0159
Pd 25.2559 8.53079 20.6924
Au 17.5175 11.128 5.20909
Pd 22.0377 20.2173 15.042
Au 9.33328 16.8105 11.2334
Pd 10.8508 26.0098 12.5758
Au 24.411 13.7714 22.5953
Pd 23.628 12.6646 19.1172
Au 24.6347 16.4434 22.3104
Pd 10.7551 17.3223 6.86085
Pd 15.3238 9.38023 5.14469
Au 10.8575 11.2453 21.2877
Au 23.7841 9.79926 22.6302
Pd 8.32733 14.1887 22.1565
Au 9.94309 26.19 7.99786
Pd 20.3334 15.402 17.0456
Au 14.1522 18.0109 3.64825
Pd 22.9064 11.9936 10.4129
Au 7.4255 16.8304 22.4944
Pd 19.1092 4.87431 16.4252
Au 8.36829 10.5464 25.4125
Pd 19.0745 23.0736 6.48578
Au 12.4247 26.7559 14.8498
Pd 22.5803 16.0046 13.3976
Au 6.49661 16.5704 18.208
Pd 13.0112 7.40087 19.4512
Au 25.198 11.6297 21.1163
Pd 18.9982 10.2386 10.5701
Au 6.57939 23.4612 17.5294
Pd 13.2861 11.236 4.8843
Au 8.59278 13.956 7.72837
Pd 13.1779 24.9456 10.2405
Pd 18.8979 18.7395 13.8232
Au 19.6117 26.781 9.44823
Au 12.9108 17.413 21.8849
Pd 21.2909 23.0951 11.9508
Au 14.0938 22.6996 24.1366
Pd 17.723 20.6612 6.81918
Au 15.83 20.1867 3.15844
Pd 11.358 7.92192 21.8164
Au 7.71331 20.5554 10.0237
Pd 18.5403 5.58294 11.014
Au 23.5831 11.944 24.2676
Pd 16.1243 18.1176 9.88617
Au 10.4572 14.848 3.62574
Pd 17.2963 8.42142 18.057
Au 12.1542 2.83228 17.0787
Pd 18.5246 14.2185 8.65103
Au 18.3027 25.4611 20.4484
Pd 11.0893 19.5675 22.5497
Au 10.7431 11.7348 15.8365
Pd 11.8321 15.4352 10.6725
Au 14.9225 15.4484 3.17692
Pd 18.3206 15.9137 6.50514
Pd 19.0772 8.65759 20.0137
Pd 14.9976 21.3762 22.0913
Pd 23.0224 23.9343 8.41225
Pd 18.1644 5.31851 13.8038
Pd 13.1574 18.6777 26.359
Pd 25.0278 14.7757 20.1039
Pd 19.327 17.9072 17.762
Pd 14.9267 8.61027 24.134
Pd 16.2899 24.2514 18.0517
Pd 4.92486 8.00098 19.7899
Pd 23.9431 18.5233 23.8777
Pd 24.8491 17.0098 17.3788
Au 18.2893 19.643 9.25126
Au 13.8049 19.4186 10.9001
Pd 18.681 27.5666 16.5446
Au 16.7545 21.9764 24.1988
Pd 6.9074 18.0612 10.2619
Au 18.3616 11.521 8.02744
Pd 11.5567 17.8782 15.2081
Au 11.0946 23.5604 11.5206
Pd 24.3813 17.9681 12.7955
Au 17.319 14.654 4.03246
Pd 12.9228 5.27748 17.8434
Au 23.4967 4.08217 15.7989
Pd 19.448 6.98207 17.8913
Au 22.4699 12.0901 21.4856
Pd 21.7424 8.84712 15.7951
Au 14.0831 13.6178 25.7041
Pd 13.9269 17.1093 19.1392
Au 5.08637 11.2803 9.02479
Pd 22.1384 14.3252 9.51162
Au 18.6315 20.127 19.0148
Pd 14.4791 3.97205 19.5119
Pd 22.1639 13.3143 16.8887
Au 4.48381 9.47271 11.5971
Au 19.5796 25.335 15.2053
Pd 8.10607 11.5582 20.7882
Au 10.6846 22.5568 6.79888
Pd 14.9335 12.2066 11.371
Au 13.8473 14.4577 18.3696
Pd 8.48615 15.0937 13.2034
Au 23.305 20.6177 12.3489
Pd 26.9098 15.3292 18.2004
Au 26.5348 20.3154 16.5551
Pd 9.08766 9.64432 17.2569
Au 23.2142 18.6922 10.5189
Pd 8.18552 17.5869 16.1272
Au 16.4894 19.4139 23.1313
Pd 13.3058 7.42922 15.8788
Au 13.7382 15.0006 21.0931
Pd 10.3872 13.0313 13.3383
Au 13.5994 19.5682 20.4729
Pd 16.1251 15.6151 8.28221
Au 13.9287 4.28621 10.9753
Pd 9.71522 24.4214 17.4597
Pd 6.88875 4.99152 11.3457
Au 19.1368 8.84493 8.07606
Au 4.73608 14.0499 9.72556
Pd 15.2741 20.8737 12.7155
Au 17.4293 5.46306 22.5607
Pd 21.161 5.14396 14.8164
Au 16.4556 23.8542 6.3006
Pd 11.9396 21.0072 11.8823
Au 19.5068 2.81379 14.7217
Pd 18.1329 15.5107 18.3188
Au 8.55917 21.0683 7.35603
Pd 15.6541 23.8844 9.37192
Au 21.1761 3.1291 16.7956
Pd 21.8011 7.8883 8.56752
Au 15.4858 11.6927 15.7527
Pd 20.5351 6.65987 12.7579
Au 11.427 24.9924 6.12482
Pd 18.0467 25.0493 8.06291
Au 8.80469 18.9367 21.5205
Pd 19.3468 13.2244 5.12744
Au 23.7388 9.69375 9.15875
Pd 15.8433 9.44871 26.4073
Pd 13.5979 6.98821 10.9587
Au 19.0121 10.2427 22.1948
Au 11.4197 22.0259 23.8834
Pd 17.9089 19.1334 4.61596
Au 20.6035 7.83708 6.18777
Pd 13.3392 12.3141 13.7475
Au 26.7041 9.50468 13.5282
Pd 6.2432 13.6081 17.0888
Au 26.2453 7.78592 18.3009
Pd 12.3058 21.7056 21.3327
Au 6.07933 23.1758 20.2014
Pd 18.1849 8.63248 5.45981
Au 19.0586 12.0703 24.3025
Pd 10.6716 22.0315 16.8592
Au 10.9652 18.138 20.1745
Pd 19.4284 23.5901 22.0359
Au 14.0023 22.7505 11.4307
Pd 8.5994 6.93634 18.1936
Au 17.6983 14.1622 15.8074
Pd 10.3714 20.6511 19.2936
Au 3.94802 10.992 13.9
Pd 7.68233 12.5454 12.5443
Pd 13.3981 19.9642 23.6809
Au 10.7668 6.41211 13.2741
Au 19.9475 20.8477 5.1604
Pd 11.1439 19.9899 7.76162
Au 24.9796 7.49589 12.8946
Pd 24.7819 14.331 16.9349
Au 5.2421 4.11479 16.0639
Pd 17.0706 26.7972 18.5112
Au 25.7467 10.3241 18.7459
Pd 19.6404 18.942 22.436
Au 12.7704 26.382 7.85491
Pd 15.9991 14.7885 22.4884
Au 8.23635 24.4253 21.5276
Pd 17.6396 21.1614 13.9116
Au 20.6598 15.9675 8.07931
Pd 9.04498 11.4077 8.51916
Au 14.0987 19.4412 8.27871
Pd 23.5127 16.5694 8.82531
Au 10.6839 20.4886 5.04393
Pd 26.3213 19.5995 12.4858
Au 4.56923 20.8104 13.7277
Pd 13.9092 12.7679 22.7402
