665
Atoms. Timestep: 20377
Pd 8.19697 8.9231 8.61986
Pd 5.63252 8.56168 12.6676
Pd 3.23188 8.33167 16.7289
Pd 3.53907 8.22929 19.4071
Pd 6.82284 8.33205 22.7697
Au 8.74633 10.2304 6.22843
Au 6.1242 9.84658 10.2671
Pd 6.72188 11.1626 7.92407
Au 3.71049 9.53584 14.3651
Pd 4.2518 10.8486 12.022
Au 3.40797 10.5818 18.1783
Pd 3.92414 11.847 15.8404
Au 4.59144 9.37775 21.6382
Pd 4.54237 11.7769 20.3556
Au 7.96083 9.56811 24.9579
Pd 5.74816 10.6163 23.8242
Au 7.31766 12.4584 5.54117
Au 4.76274 12.1516 9.63625
Pd 5.34334 13.4088 7.28259
Au 4.37095 13.1562 13.5276
Pd 4.85051 14.4279 11.2326
Au 3.52593 13.337 18.179
Pd 4.02244 14.6961 15.8504
Au 5.64178 13.0109 22.5513
Pd 4.60619 14.5459 20.3487
Au 6.93077 11.8294 25.9241
Pd 6.8502 14.2338 24.6959
Au 8.6204 14.6516 4.35409
Au 5.22411 15.5866 8.88426
Pd 5.75991 16.6379 6.52499
Au 4.45411 16.0534 13.5287
Pd 4.89556 17.3477 11.2226
Au 3.61738 16.0984 18.1485
Pd 4.14826 17.5523 15.8079
Au 5.70596 15.7534 22.5518
Pd 4.68413 17.2569 20.345
Au 8.01967 15.54 26.7694
Pd 6.88187 16.9631 24.6825
Au 8.21423 19.5474 4.36967
Au 5.27488 18.3128 8.75152
Pd 6.89303 19.0589 6.64017
Au 4.65023 19.0396 13.4641
Pd 5.37886 20.5022 11.1994
Au 3.68331 18.8441 18.1525
Pd 4.30679 20.3605 15.8861
Au 5.787 18.4682 22.5578
Pd 4.73214 19.9169 20.3963
Au 7.81352 18.184 26.8117
Pd 6.81003 19.6754 24.709
Au 8.78566 22.5131 4.45076
Au 6.3296 20.7366 8.60665
Pd 10.5387 20.7149 3.75951
Au 4.97155 21.8827 13.6964
Pd 6.95131 22.8107 12.0013
Au 3.78502 21.5446 18.2891
Pd 6.05982 22.9605 18.7722
Au 5.58735 21.1357 22.6829
Pd 4.37306 22.4583 20.7055
Au 8.79029 21.1142 25.5787
Pd 7.69745 22.4143 23.4957
Pd 10.2522 8.03252 6.99361
Pd 7.65593 7.61039 10.9812
Pd 9.70551 6.68049 9.33423
Pd 5.14825 7.32528 15.0532
Pd 7.19363 6.36723 13.363
Pd 5.42301 7.15493 17.7762
Pd 7.4189 6.1891 16.0905
Pd 5.73841 7.16057 20.5204
Pd 7.67806 6.09765 18.8687
Pd 9.10417 7.31368 23.8235
Pd 8.01327 6.11146 21.6128
Pd 11.457 10.1445 5.65041
Au 12.8856 7.89655 6.24617
Au 10.54 10.3582 8.28253
Pd 8.48659 11.2789 10.009
Au 9.99724 9.01481 10.6887
Pd 13.2242 10.3243 7.66515
Au 7.95268 9.9528 12.3606
Pd 5.98034 10.9359 14.0984
Au 7.45809 8.63914 14.7492
Pd 10.3657 11.3564 12.1247
Au 5.45828 9.63282 16.4624
Pd 5.82196 11.938 17.9164
Au 7.76269 8.49666 17.5284
Pd 7.87152 10.9717 16.1971
Au 5.78132 9.53992 19.214
Pd 6.92464 10.7592 21.4313
Au 8.07679 8.4543 20.3332
Pd 8.20598 10.875 18.9794
Au 9.23209 9.69678 22.5923
Pd 10.3001 10.9239 24.8237
Au 11.4882 8.59516 23.8059
Pd 11.6387 11.0294 22.4414
Pd 10.0276 12.3891 4.9795
Au 12.8492 12.2051 4.48363
Au 9.06361 12.5675 7.58957
Pd 7.02124 13.5505 9.36501
Au 10.8998 12.7096 9.72532
Pd 11.8027 12.5399 7.0153
Au 6.47554 12.2559 11.7285
Pd 6.7528 14.5656 13.2561
Au 8.36284 12.3086 13.8393
Pd 8.84424 13.6355 11.4786
Au 6.29611 13.2395 15.5771
Pd 5.91256 14.708 17.94
Au 8.27552 13.2916 17.6629
Pd 8.73533 14.6251 15.327
Au 6.94943 13.1796 20.1216
Pd 8.11637 14.4377 22.2961
Au 9.365 12.1458 21.2056
Pd 9.43993 14.5881 19.8505
Au 8.07896 12.0176 23.6153
Pd 9.18857 13.2472 25.8469
Au 12.7473 12.2224 24.7621
Pd 10.5024 13.3445 23.4795
Pd 10.0174 16.9238 3.68588
Au 11.4066 14.5069 3.86595
Au 7.55588 14.7462 6.88104
Pd 7.60928 16.9655 8.46363
Au 9.36146 14.9169 9.05759
Pd 10.3195 14.7918 6.37281
Au 7.15816 15.8352 10.8979
Pd 6.83307 17.4507 13.2072
Au 9.13255 15.9511 12.9726
Pd 9.52026 17.2296 10.5419
Au 6.39967 16.0762 15.5698
Pd 6.00443 17.4823 17.9524
Au 8.37203 16.0973 17.6996
Pd 8.87233 17.4758 15.3032
Au 7.055 15.964 20.1732
Pd 8.24368 17.2353 22.3893
Au 10.5816 15.7893 22.0638
Pd 9.5663 17.4328 19.9458
Au 9.29553 15.6422 24.4915
Pd 10.3851 16.8814 26.7003
Au 11.6072 14.5397 25.777
Pd 11.7178 16.9705 24.3326
Pd 10.5134 18.8729 5.7061
Au 12.0882 18.5795 3.35649
Au 8.45279 17.0635 5.78694
Pd 8.86505 19.2979 8.50974
Au 10.4462 17.1411 7.83982
Pd 11.8496 19.4562 8.14278
Au 7.20399 18.657 10.7211
Pd 7.07587 20.3278 13.2209
Au 9.22141 18.8755 12.8629
Pd 10.539 19.7118 10.609
Au 6.54537 18.8731 15.5758
Pd 6.07452 20.2485 18.0392
Au 8.4701 18.883 17.7501
Pd 9.11395 20.2435 15.3077
Au 7.18753 18.7011 20.2231
Pd 8.37723 19.9835 22.5668
Au 10.7543 18.6464 22.1889
Pd 9.75819 20.3768 20.0578
Au 9.37794 18.4805 24.6991
Pd 9.96241 19.5241 27.2702
Au 12.2249 18.9798 26.2128
Pd 10.9991 20.6081 24.0968
Pd 6.70681 21.625 5.9531
Au 11.5506 23.1609 4.2491
Au 9.0788 20.9234 6.46471
Pd 7.94394 22.7643 8.14704
Au 10.3259 21.7019 8.67702
Pd 10.1073 23.4664 6.56986
Au 8.18999 21.1288 10.4662
Pd 6.82784 23.9078 14.3371
Au 9.37944 21.7747 12.8456
Pd 9.22782 23.6089 10.4374
Au 6.80721 21.5865 15.6453
Pd 4.83727 23.0544 16.2997
Au 8.37236 21.6443 17.8235
Pd 9.19459 22.9404 15.3421
Au 7.17487 21.331 20.5336
Pd 6.52822 23.6898 21.427
Au 10.0069 22.2447 22.1179
Pd 7.32638 24.1446 16.9102
Au 10.008 23.31 24.6037
Pd 8.78193 24.601 22.3068
Au 11.3534 21.6923 26.4455
Pd 8.98053 23.2441 19.8808
Pd 11.7776 5.82435 7.73738
Pd 9.26768 5.43765 11.6899
Pd 11.3435 4.5353 10.0514
Pd 9.47143 5.25459 14.4146
Pd 11.5448 4.35356 12.7635
Pd 9.69709 5.1449 17.1878
Pd 11.7506 4.23023 15.5359
Pd 9.94479 5.06771 19.9687
Pd 11.9682 4.14394 18.338
Pd 10.2772 5.10408 22.665
Pd 12.2422 4.12313 21.1108
Pd 14.3366 9.99936 5.20042
Au 14.2895 5.64614 6.90211
Au 12.0451 8.12631 9.01312
Pd 12.3817 10.4463 10.4283
Au 11.6237 6.78938 11.3849
Pd 14.5995 8.11253 8.31658
Au 9.52112 7.69564 13.06
Pd 9.90252 10.0231 14.4815
Au 11.8562 6.63453 14.174
Pd 11.9876 9.11141 12.7985
Au 9.7875 7.54866 15.8392
Pd 10.2001 9.8947 17.2841
Au 12.0852 6.51999 16.9743
Pd 12.2358 8.97811 15.5989
Au 10.0479 7.44942 18.6429
Pd 10.5144 9.8173 20.1223
Au 12.3166 6.45272 19.8039
Pd 12.4808 8.87308 18.4274
Au 10.3955 7.41553 21.4765
Pd 13.881 9.96403 23.6632
Au 12.6538 6.27787 22.7305
Pd 12.7801 8.73324 21.3635
Pd 14.7659 14.0248 3.68195
Au 16.1682 11.872 4.28336
Au 14.7302 12.3782 6.54927
Pd 13.5807 12.7644 9.08924
Au 14.9559 10.5533 9.77002
Pd 16.3978 14.4391 5.75284
Au 12.7594 12.7848 11.8264
Pd 10.743 13.6849 13.5714
Au 12.362 11.4357 14.2041
Pd 15.3244 13.0368 11.2141
Au 10.3096 12.34 15.9253
Pd 10.7458 14.6207 17.412
Au 12.6449 11.2971 17.0437
Pd 12.7968 13.7281 15.6682
Au 10.642 12.234 18.7574
Pd 11.7804 13.4796 21.0308
Au 12.9245 11.1628 19.9576
Pd 13.0836 13.5694 18.5517
Au 14.053 12.3665 22.2992
Pd 14.4944 14.234 25.5372
Au 15.6183 11.9416 24.5465
Pd 15.7624 14.364 23.1209
Pd 13.4511 16.271 3.26853
Au 16.3127 16.2672 3.2511
Au 13.3081 14.5356 5.89429
Pd 12.106 14.9669 8.46043
Au 15.0121 14.9099 8.07565
Pd 14.9347 16.729 5.48747
Au 11.1989 15.0762 11.1925
Pd 11.4071 17.4059 12.762
Au 13.1043 15.0775 13.2955
Pd 13.8562 15.2257 10.5832
Au 11.1404 15.9579 15.0932
Pd 10.8117 17.3912 17.4839
Au 13.2192 15.9447 17.2321
Pd 13.558 17.2056 14.9474
Au 11.8925 15.9188 19.6317
Pd 13.0477 17.0522 21.8943
Au 14.2225 14.7945 20.8241
Pd 14.3971 17.2368 19.4084
Au 12.9156 14.653 23.3534
Pd 13.3249 16.5185 26.4905
Au 16.2029 16.2237 26.3223
Pd 14.6062 16.6649 24.1562
Pd 13.2487 21.0099 3.78902
Au 14.8207 18.6478 3.44055
Au 11.9923 16.7428 5.46233
Pd 13.2577 19.9546 10.6014
Au 13.508 17.2 7.74302
Pd 13.3619 19.0955 5.74354
Au 12.2058 17.4617 10.0913
Pd 11.7066 20.2916 12.9396
Au 13.926 17.7112 12.3384
Pd 15.6257 19.7211 11.925
Au 11.3686 18.8062 15.155
Pd 10.8847 20.1365 17.5691
Au 13.2427 18.7412 17.2428
Pd 13.9779 19.787 14.2571
Au 12.0305 18.7633 19.7595
Pd 13.0008 21.2583 19.0406
Au 14.3755 19.324 21.2264
Pd 10.7433 22.7757 17.8306
Au 13.288 19.144 23.7722
Pd 13.9066 21.0654 25.715
Au 15.011 18.6561 26.0886
Pd 14.7917 21.3202 23.1537
Pd 12.8774 23.8226 6.52919
Au 14.3544 23.433 4.33627
Au 11.7701 21.3331 6.14687
Pd 11.4223 24.1698 8.84006
Au 15.356 21.727 10.0466
Pd 13.0455 21.9297 8.56819
Au 11.5209 22.2962 10.9751
Pd 9.14855 24.4747 12.9288
Au 11.5682 23.4115 13.4332
Pd 13.6644 25.6008 8.38293
Au 11.6786 21.6294 15.4097
Pd 8.92863 25.6213 15.245
Au 11.2772 24.5135 15.8847
Pd 11.3823 26.1504 13.8117
Au 9.49824 25.2146 17.8405
Pd 7.46372 25.2615 19.5224
Au 11.7595 23.5029 20.1603
Pd 13.3725 25.997 15.7809
Au 12.3443 21.0559 21.6967
Pd 11.416 24.6685 22.6885
Au 12.6612 22.8965 24.298
Pd 12.8695 26.0167 20.9083
Pd 13.3658 3.68512 8.45674
Pd 13.6272 3.52791 11.1283
Pd 15.847 4.01688 9.59379
Pd 13.8249 3.39423 13.8974
Pd 16.0512 3.86919 12.3612
Pd 14.021 3.2884 16.7161
Pd 16.2355 3.74306 15.1521
Pd 14.2389 3.26023 19.5603
Pd 16.4303 3.6406 17.951
Pd 14.5437 3.65389 22.435
Pd 16.6064 3.60468 20.7174
Pd 15.7691 7.75129 5.91282
Au 16.4562 6.22371 8.24009
Au 13.7735 5.899 9.7031
Pd 14.1276 8.21914 11.1101
Au 16.2703 6.26042 11.0234
Pd 16.8093 8.62578 9.73888
Au 13.963 5.74365 12.5204
Pd 14.3225 8.07775 13.9345
Au 16.4314 6.14427 13.8071
Pd 16.622 8.63106 12.479
Au 14.165 5.60553 15.3307
Pd 14.538 7.95511 16.7548
Au 16.6227 6.02009 16.6031
Pd 16.8038 8.49565 15.2538
Au 14.379 5.52268 18.1445
Pd 14.7601 7.91621 19.5983
Au 16.8264 5.93357 19.4269
Pd 16.9922 8.37244 18.0595
Au 14.6083 5.61248 20.9221
Pd 14.9947 7.68501 22.622
Au 16.9098 5.74388 22.3582
Pd 17.1331 8.2214 20.9789
Pd 17.7285 13.9911 3.49127
Au 17.486 9.6743 4.97175
Au 16.1128 10.1653 7.28413
Pd 16.4513 12.6829 8.76986
Au 17.1582 11.0589 11.192
Pd 17.7824 12.2238 6.44963
Au 14.4913 10.5665 12.5224
Pd 14.8992 12.9226 13.948
Au 17.009 10.9944 13.921
Pd 17.4956 13.4776 12.6547
Au 14.705 10.4045 15.3579
Pd 15.1175 12.7228 16.8206
Au 17.1878 10.8301 16.7103
Pd 17.4228 13.3139 15.3815
Au 14.9323 10.2811 18.2214
Pd 15.3565 12.5526 19.7405
Au 17.3628 10.6949 19.5768
Pd 17.5851 13.1628 18.1803
Au 15.1756 10.1006 21.2167
Pd 17.3369 13.9548 25.3144
Au 16.7116 9.63027 23.4935
Pd 16.8767 12.0982 22.0605
Pd 17.5571 18.6553 3.66205
Au 19.1698 16.2854 3.36161
Au 17.8258 16.7425 5.57194
Pd 16.4811 17.2013 7.81959
Au 18.1062 14.8192 7.92191
Pd 18.553 18.9475 7.19799
Au 16.7779 15.219 10.2345
Pd 15.6432 15.5091 12.6757
Au 17.8852 15.8225 14.1141
Pd 17.3319 17.5361 11.7501
Au 15.3533 15.1724 15.434
Pd 15.7291 17.5128 16.8987
Au 17.8384 15.6485 16.8586
Pd 18.3047 18.1392 15.7065
Au 15.562 15.008 18.3173
Pd 15.899 16.81 21.687
Au 17.0849 14.584 20.6106
Pd 17.2857 17.125 19.1383
Au 17.46 16.3698 23.9017
Pd 17.7572 18.4411 25.7267
Au 19.0788 15.9727 26.0072
Pd 20.4036 16.1278 23.5575
Pd 15.9782 21.0821 3.97362
Au 18.3875 20.8072 5.17762
Au 16.1408 19.154 5.86981
Pd 14.6763 19.661 8.21357
Au 17.0781 19.4201 9.5594
Pd 16.9109 21.2272 7.48004
Au 15.1066 17.5815 10.025
Pd 17.6173 21.5202 11.4116
Au 16.3807 20.0503 16.0039
Pd 17.6976 23.0934 9.27739
Au 16.0356 17.8947 14.1584
Pd 14.1991 23.3788 14.9335
Au 15.3968 19.6806 18.6807
Pd 16.0586 21.5441 13.8883
Au 14.0502 21.1669 16.5175
Pd 13.2938 23.4965 17.445
Au 17.046 19.1264 20.935
Pd 16.094 22.2169 17.8929
Au 16.0623 18.8854 23.5771
Pd 16.584 20.9205 25.341
Au 20.4972 18.1885 25.3281
Pd 15.4231 23.3287 24.7601
Pd 15.2071 25.3444 6.16446
Au 16.7858 23.1779 5.56001
Au 14.5176 21.5383 6.18647
Pd 13.6634 23.8582 10.4507
Au 15.285 23.4674 7.93452
Pd 16.4977 26.5456 12.0799
Au 13.8407 21.9978 12.4767
Pd 11.4273 25.1719 11.3199
Au 16.031 24.9533 10.0541
Pd 14.0149 26.6073 10.7953
Au 13.669 25.0371 12.9063
Pd 14.1899 27.5165 13.3625
Au 16.0736 23.7946 12.5519
Pd 14.878 28.1251 15.7756
Au 15.6261 24.9099 17.1601
Pd 10.185 25.6707 20.3658
Au 14.5319 24.4526 19.5485
Pd 12.0572 25.6306 18.3527
Au 13.7526 23.5058 21.916
Pd 14.0351 25.3177 23.7065
Au 18.1502 23.178 24.4732
Pd 15.4555 25.9577 21.5891
Pd 18.4101 4.49947 8.20079
Pd 18.3296 4.40752 10.9081
Pd 20.7458 4.96019 9.52082
Pd 18.4796 4.28799 13.6674
Pd 20.7641 4.85118 12.2357
Pd 18.6605 4.16597 16.4402
Pd 20.9136 4.72826 14.9858
Pd 18.8384 4.06677 19.2167
Pd 21.0687 4.62151 17.769
Pd 18.9481 4.1018 21.9406
Pd 21.1863 4.62282 20.5357
Pd 18.1172 8.30792 7.33803
Au 17.8464 6.01094 5.98628
Au 18.7821 6.76618 9.57948
Pd 19.1442 9.14328 11.0521
Au 21.1588 7.25878 10.8891
Pd 20.4945 8.77443 8.63833
Au 18.7348 6.70028 12.3395
Pd 19.1037 9.06538 13.7981
Au 21.1883 7.15102 13.6584
Pd 21.5444 9.59722 12.36
Au 18.8834 6.57574 15.1114
Pd 19.2546 8.93205 16.5712
Au 21.3122 7.02741 16.4414
Pd 21.5664 9.50389 15.1255
Au 19.0531 6.45936 17.9093
Pd 19.3734 8.83464 19.3925
Au 21.4427 6.96628 19.2584
Pd 21.6755 9.40899 17.92
Au 19.1599 6.41369 20.7476
Pd 18.6912 7.70547 23.1657
Au 20.714 5.92956 22.8984
Pd 20.9117 8.35346 21.6409
Pd 19.1119 11.7858 4.17621
Au 19.805 10.3322 6.41556
Au 18.4355 10.7169 8.77187
Pd 18.7667 13.1546 10.2041
Au 20.8284 11.1945 10.1002
Pd 20.1463 12.7567 7.81886
Au 19.4913 11.5341 12.4943
Pd 19.864 13.8716 13.9673
Au 21.9089 11.9385 13.7983
Pd 21.2501 13.5099 11.5566
Au 19.5031 11.4069 15.2549
Pd 19.8963 13.7412 16.7357
Au 21.9642 11.8366 16.6163
Pd 22.2942 14.2343 15.3178
Au 19.6198 11.2969 18.0469
Pd 19.107 12.6859 20.4591
Au 21.1471 10.8106 20.2994
Pd 21.4803 13.2245 18.9678
Au 18.8628 10.1926 21.8736
Pd 18.4296 11.6405 24.2732
Au 20.3719 9.65362 24.0722
Pd 20.6121 12.1578 22.7026
Pd 19.9493 18.4406 4.94448
Au 20.5594 13.9502 3.35822
Au 19.4182 14.3669 5.61823
Pd 18.7533 17.1502 9.413
Au 20.613 15.0465 9.30293
Pd 20.1633 16.6729 7.07527
Au 19.2079 15.463 11.6761
Pd 19.7386 17.7202 13.2615
Au 21.7074 15.7733 13.0939
Pd 21.1668 17.3109 10.8786
Au 20.2863 16.1846 15.4986
Pd 18.0112 19.6727 18.0869
Au 19.8308 17.5971 17.8742
Pd 20.9652 18.913 15.5075
Au 19.3989 15.1418 19.0838
Pd 18.8411 16.6221 21.3561
Au 20.9278 14.616 21.2962
Pd 21.415 16.9924 20.0254
Au 18.6298 14.0887 22.8874
Pd 21.8986 15.6915 25.6937
Au 20.1905 13.6233 25.1322
Pd 21.3567 18.4144 22.3901
Pd 19.1524 22.8188 6.90648
Au 20.7408 20.6127 6.54233
Au 20.8821 18.8942 8.6594
Pd 18.7462 22.6208 13.4994
Au 19.3687 19.3808 11.0824
Pd 20.2015 22.3601 11.0643
Au 17.9588 19.7315 13.4619
Pd 17.1064 23.2165 15.6134
Au 22.3774 18.5278 13.1216
Pd 20.5523 20.5832 13.2641
Au 19.011 20.9415 15.6688
Pd 18.8661 22.4853 17.8519
Au 20.6638 20.3543 17.8723
Pd 23.6829 19.5774 15.4418
Au 19.6526 19.0865 20.2388
Pd 15.3407 21.7869 20.4613
Au 20.1415 20.834 22.3256
Pd 18.0602 21.4422 20.1539
Au 18.7924 18.6299 23.1911
Pd 19.276 20.6858 24.9368
Au 21.9342 20.2476 24.3489
Pd 17.4873 21.117 22.8131
Pd 17.595 25.0128 7.47386
Au 20.0574 24.2445 9.04861
Au 19.2729 21.0248 8.89478
Pd 20.9229 25.7585 14.0752
Au 18.3441 26.3397 9.74338
Pd 18.4594 24.4178 11.52
Au 15.9589 26.893 8.39568
Pd 19.1762 26.9278 12.3415
Au 18.2754 25.2678 14.155
Pd 19.3514 27.1529 15.6918
Au 17.2072 27.923 14.2137
Pd 17.02 27.3245 16.8379
Au 21.6184 23.1311 17.769
Pd 19.2402 27.0164 18.775
Au 15.7551 25.7354 14.6494
Pd 14.3055 26.9626 18.1994
Au 17.2148 23.962 19.6234
Pd 18.3306 25.086 17.2161
Au 16.4222 23.5396 22.2418
Pd 16.9646 25.4985 23.8155
Au 20.833 22.8165 23.9699
Pd 18.1667 25.8542 21.3465
Pd 20.1613 6.42009 7.2495
Pd 23.0901 5.45493 10.8303
Pd 21.8514 8.41541 6.32365
Pd 23.1792 5.32792 13.5772
Pd 25.8988 8.11424 13.5591
Pd 23.3051 5.18988 16.3317
Pd 25.9158 11.7625 17.3561
Pd 23.4335 5.18167 19.0784
Pd 25.4969 5.84111 14.9478
Pd 22.96 6.48796 21.4979
Pd 25.162 7.06131 20.0165
Pd 19.5214 7.9549 5.07509
Au 21.1444 9.97697 4.19923
Au 22.5174 6.84925 8.50359
Pd 22.8461 9.26599 9.9583
Au 24.7534 7.36551 9.82054
Pd 24.1455 8.92924 7.65412
Au 23.5954 7.65538 12.2298
Pd 23.9574 10.0215 13.6569
Au 27.4552 10.0734 12.6443
Pd 25.2566 9.5963 11.2313
Au 23.6152 7.63966 15.0134
Pd 26.3278 10.3878 15.0275
Au 25.6326 5.76639 17.627
Pd 25.6871 11.9825 12.8383
Au 23.7277 7.55852 17.7839
Pd 24.0196 9.943 16.4835
Au 26.0502 8.07815 16.3776
Pd 23.9083 13.6897 17.5065
Au 23.2399 8.92021 20.2048
Pd 22.4128 7.89429 23.7953
Au 24.69 8.4178 22.4227
Pd 25.5385 9.43986 18.7763
Pd 21.5044 12.3922 5.42288
Au 23.4205 10.4295 5.46325
Au 22.1805 10.8253 7.73331
Pd 22.6647 13.1208 9.19313
Au 24.7119 11.2061 8.98389
Pd 23.93 12.7055 6.82459
Au 23.3383 11.5709 11.3932
Pd 23.7256 13.8618 12.9406
Au 26.8997 11.5233 10.5264
Pd 25.1423 13.478 10.5776
Au 24.3385 12.312 15.1785
Pd 21.8547 15.6141 17.6748
Au 26.9669 13.0548 15.0652
Pd 24.9672 14.9728 15.2149
Au 23.5701 11.3187 18.8646
Pd 23.024 12.7001 21.2134
Au 25.0566 10.8159 21.2146
Pd 25.4591 13.0827 19.691
Au 22.6512 10.3159 22.5454
Pd 22.0464 11.5758 24.9127
Au 24.0851 9.82455 24.6352
Pd 24.3903 12.2564 23.5684
Pd 22.2513 18.382 6.35392
Au 21.5073 16.1405 4.76584
Au 22.0256 14.5981 6.92125
Pd 22.5976 16.8181 8.51993
Au 24.6145 14.9115 8.34876
Pd 23.8962 16.3309 6.22962
Au 23.1683 15.3649 10.7178
Pd 26.3932 14.5916 12.8544
Au 27.5309 15.7111 15.1638
Pd 25.794 16.1342 10.6374
Au 22.9846 16.92 15.3619
Pd 24.5555 16.3522 17.5875
Au 26.5788 14.4161 17.4286
Pd 25.6786 17.6423 15.2799
Au 23.4548 15.0236 19.8364
Pd 23.0085 16.3207 22.1637
Au 25.0526 14.3892 22.0205
Pd 26.0797 15.7461 19.782
Au 22.3714 14.0668 23.5281
Pd 23.0069 17.7562 24.419
Au 23.4958 13.552 25.8112
Pd 24.4472 15.5388 24.3334
Pd 21.7426 21.9662 8.73511
Au 23.4538 19.7179 8.50044
Au 21.9878 20.2339 10.8561
Pd 23.2078 21.198 13.1823
Au 25.1597 17.6113 8.42339
Pd 24.63 20.7716 10.8479
Au 23.8146 18.1109 10.73
Pd 25.0004 19.144 13.0669
Au 27.03 17.2079 12.9071
Pd 26.3943 18.7534 10.7472
Au 26.3522 20.2601 15.3561
Pd 23.3286 20.9983 17.7816
Au 27.1528 17.0551 17.5594
Pd 24.4018 16.5154 12.9778
Au 22.5745 18.3197 17.75
Pd 20.7745 22.0317 20.0477
Au 25.5974 17.0295 22.1575
Pd 24.0872 17.7144 19.9692
Au 22.3347 19.8101 20.1585
Pd 22.7398 21.5848 22.1985
Au 23.9986 19.1617 22.33
Pd 26.6253 18.3529 19.929
Pd 20.9999 25.0357 11.4149
Au 22.8576 22.8888 11.0374
Au 21.4705 23.2498 13.3201
Pd 21.0517 25.7223 17.1381
Au 25.7938 21.7364 13.1259
Pd 24.4484 22.1707 15.439
Au 19.9962 23.6989 15.6281
Pd 24.1978 23.7085 17.6291
Au 27.5219 19.7906 12.9807
Pd 22.6893 24.2225 15.506
Au 25.3017 19.0232 17.6828
Pd 25.8634 21.6114 17.711
Au 24.9558 20.4549 20.0481
Pd 21.7756 21.5634 15.5391
Au 19.8793 24.5385 19.4509
Pd 16.6393 26.5038 19.2661
Au 21.7074 24.0743 21.6951
Pd 23.4143 22.681 19.8966
Au 20.725 26.4461 21.0457
Pd 19.0687 23.311 21.8183
Au 19.7462 25.2626 23.4062
Pd 22.4773 25.1635 19.3386
