665
Atoms. Timestep: 20241
Pd 9.25141 9.26739 7.52594
Pd 8.0362 6.22156 12.5436
Pd 4.78378 10.3731 19.3932
Pd 5.23491 12.1025 21.4669
Pd 8.28016 8.70103 24.1174
Au 13.3173 9.1818 4.82973
Au 7.08704 10.1787 9.039
Pd 8.07405 11.7567 6.92302
Au 6.60801 8.17394 11.5613
Pd 5.55768 10.5516 11.2912
Au 3.42788 11.4325 17.2206
Pd 4.28968 11.6865 13.4246
Au 2.71224 15.7517 19.2055
Pd 2.3395 13.9035 17.2721
Au 5.0139 19.9931 19.1804
Pd 4.53539 14.9191 21.0021
Au 9.36893 12.0024 4.50112
Au 5.96953 12.6267 8.56122
Pd 6.92743 14.2386 6.45144
Au 3.02267 14.0606 12.777
Pd 3.43956 15.4867 10.4077
Au 2.22796 12.4784 14.9475
Pd 4.25198 16.082 14.0685
Au 6.32273 19.041 21.5501
Pd 1.17426 16.4689 17.166
Au 5.7491 16.6771 22.6818
Pd 6.89929 16.4436 20.2089
Au 9.70181 16.6028 3.34262
Au 4.86877 15.0527 8.1223
Pd 5.7907 16.6955 6.12088
Au 2.17692 16.6992 12.5843
Pd 3.05861 18.3411 10.6413
Au 2.21121 17.9894 15.2053
Pd 1.83516 15.1896 14.8875
Au 11.0834 23.7724 22.8423
Pd 4.87834 18.3369 15.6854
Au 11.5495 17.5358 26.4157
Pd 8.65808 20.3014 22.0029
Au 8.18712 14.448 4.04024
Au 4.31482 18.698 6.93692
Pd 6.00467 19.1667 4.88563
Au 3.04899 20.8205 11.6036
Pd 4.31626 20.3134 9.28493
Au 3.85537 20.632 16.7395
Pd 3.78407 18.8267 13.2538
Au 8.97248 17.8209 21.1697
Pd 9.21548 22.832 21.0495
Au 14.1939 18.3985 26.2921
Pd 10.9101 25.0029 20.5305
Au 7.7557 21.2113 5.58457
Au 5.86348 22.4833 10.4188
Pd 7.03052 16.9129 3.75718
Au 6.22219 24.3718 13.872
Pd 7.27317 22.1038 12.8093
Au 6.17357 24.7678 16.6516
Pd 9.33766 19.7117 17.1849
Au 6.84432 21.6621 20.3947
Pd 7.63929 19.3111 19.2686
Au 10.3316 18.7704 23.8216
Pd 11.0373 21.163 22.8725
Pd 10.5127 6.77328 8.27699
Pd 8.39129 7.78498 9.66817
Pd 9.74826 5.54139 10.6268
Pd 5.36754 9.10073 13.7706
Pd 5.65669 10.8389 15.7666
Pd 7.87572 6.95267 22.0885
Pd 6.74541 7.92064 15.9784
Pd 6.80454 10.4226 22.8289
Pd 9.36051 8.14943 16.8948
Pd 10.3526 7.42924 23.0753
Pd 11.4962 9.79105 22.4859
Pd 12.0873 11.588 4.27863
Au 15.9898 8.82989 4.66317
Au 11.9695 8.88101 7.13942
Pd 9.53345 11.3843 9.18949
Au 10.8436 8.95552 9.67819
Pd 13.6054 11.1763 6.54113
Au 8.41363 10.1699 11.3775
Pd 6.97334 11.311 13.4928
Au 10.6397 8.56757 14.508
Pd 11.1417 10.9159 11.49
Au 4.502 8.8718 17.1388
Pd 4.53746 13.5433 15.664
Au 7.03287 9.58392 18.0581
Pd 5.99928 12.2967 17.9559
Au 9.56484 13.5592 24.6065
Pd 8.02469 12.8362 22.2217
Au 6.34093 8.66576 20.7853
Pd 9.77919 9.95679 18.8234
Au 7.42728 11.0987 20.1992
Pd 9.84904 16.2637 24.7898
Au 8.47079 13.3309 26.8908
Pd 13.6157 8.33474 21.6175
Pd 10.902 14.1056 3.74735
Au 13.6218 13.7316 3.45935
Au 10.8093 11.35 6.65827
Pd 8.3814 13.8413 8.71661
Au 12.3788 11.0712 8.9807
Pd 12.4118 13.6405 5.98777
Au 7.31033 12.5786 10.9436
Pd 4.51881 12.9871 10.8448
Au 8.57799 13.4713 13.2776
Pd 9.97652 13.3752 10.9797
Au 3.18149 9.93356 15.0671
Pd 3.69488 12.9228 19.4224
Au 8.77271 12.4763 18.1655
Pd 7.25036 13.1421 15.6617
Au 5.12095 14.8442 18.2945
Pd 8.27434 15.4611 22.4825
Au 13.0216 14.7392 21.422
Pd 9.3853 11.0877 23.5144
Au 10.7389 11.8569 26.6309
Pd 7.86863 17.8925 23.6291
Au 15.2121 8.57653 25.1996
Pd 11.8165 11.9056 24.2335
Pd 11.4288 18.5929 4.14851
Au 12.4568 16.2694 3.06381
Au 9.66442 13.9552 6.24679
Pd 7.34429 16.3385 8.30383
Au 11.1886 13.5275 8.48588
Pd 11.2442 16.1785 5.5208
Au 6.22666 15.0103 10.4436
Pd 4.99234 16.9727 11.8285
Au 7.45199 15.9674 12.941
Pd 8.87826 15.8085 10.5439
Au 5.77287 13.8913 13.1594
Pd 6.26561 15.7292 15.6127
Au 6.80902 13.7712 20.1116
Pd 6.59407 18.3672 13.65
Au 3.10191 18.3272 17.9768
Pd 10.1113 11.7043 20.75
Au 12.7741 12.1185 21.7362
Pd 5.86436 17.5321 18.0166
Au 14.7228 15.5938 23.6019
Pd 12.1623 14.6948 24.2559
Au 7.39551 15.1961 25.0146
Pd 12.6856 17.4437 24.1116
Pd 8.6797 18.9137 4.48361
Au 10.4353 20.9583 5.2404
Au 8.51065 16.5095 5.83882
Pd 7.35803 18.7809 7.04735
Au 10.0693 16.073 8.04367
Pd 10.2226 18.5452 6.6192
Au 5.12144 17.6141 9.11542
Pd 5.61951 20.0399 11.6983
Au 7.20205 17.836 10.8414
Pd 9.10898 18.4133 9.11825
Au 3.68851 16.1272 16.6142
Pd 6.54406 20.0963 16.8743
Au 7.73971 15.0688 17.762
Pd 7.80075 17.8175 16.1459
Au 9.4007 14.6667 20.0713
Pd 9.14034 17.2247 18.5547
Au 5.83885 14.0933 23.1442
Pd 11.583 18.8305 18.2994
Au 4.39037 17.5558 20.3239
Pd 15.1897 18.3254 23.8068
Au 17.861 21.5427 24.7173
Pd 13.5217 20.0623 22.6149
Pd 7.2075 22.6548 8.05118
Au 9.43099 23.2508 6.56558
Au 5.55717 20.9241 6.99245
Pd 4.60175 22.5612 12.7666
Au 9.21463 20.847 7.81801
Pd 8.84551 24.5078 9.00669
Au 6.95942 20.181 9.32892
Pd 9.06911 23.8986 13.9966
Au 8.48581 19.8488 11.9021
Pd 8.60001 22.1711 10.3667
Au 4.48427 22.9789 15.4894
Pd 5.55347 20.6974 14.4375
Au 11.1387 19.7089 15.2923
Pd 8.36359 20.3303 14.6735
Au 10.0487 20.6408 19.6726
Pd 7.59357 24.093 19.1562
Au 10.9266 16.4116 22.3339
Pd 5.59238 22.4438 17.971
Au 14.9501 20.8161 25.0384
Pd 11.403 18.9564 21.2426
Au 15.7331 24.0943 22.9315
Pd 10.2848 23.263 18.5842
Pd 11.748 4.50291 9.05232
Pd 11.5884 6.52349 15.9408
Pd 15.2627 2.39176 14.1901
Pd 8.01838 8.75953 13.8361
Pd 6.05529 7.14471 18.5751
Pd 13.4263 2.31773 16.225
Pd 15.9407 2.48981 16.9187
Pd 10.2119 4.33132 16.3529
Pd 9.90295 5.60275 21.0275
Pd 11.1268 7.93575 20.5082
Pd 12.387 5.95911 22.0869
Pd 14.8367 11.2687 4.03091
Au 14.2199 2.5269 11.1617
Au 12.1149 6.61031 10.5989
Pd 13.5927 8.66944 9.63367
Au 10.9058 5.91255 13.214
Pd 14.7545 8.66958 7.0955
Au 9.84384 8.00752 11.9406
Pd 9.68609 10.9935 13.7148
Au 13.5371 6.57943 14.1045
Pd 12.4714 8.5388 12.4198
Au 8.90333 6.32229 14.9957
Pd 8.34091 10.5714 15.9858
Au 8.07446 5.73764 17.454
Pd 13.1551 8.85217 15.5739
Au 7.42583 5.28666 20.0195
Pd 8.99484 9.31438 21.5274
Au 11.9191 4.05911 20.0582
Pd 14.1624 6.78037 17.0377
Au 7.05081 12.3884 24.746
Pd 16.4425 11.4787 23.3
Au 8.49832 10.654 26.0077
Pd 10.654 6.16111 18.4552
Pd 15.2188 15.8975 2.87803
Au 16.4065 13.4066 3.26791
Au 15.1588 13.3388 5.74919
Pd 13.9628 13.2727 8.30401
Au 15.1609 10.78 8.8828
Pd 16.7393 15.516 5.07241
Au 13.9386 10.6792 11.4884
Pd 11.3805 13.1653 13.3159
Au 12.4469 10.8001 13.9465
Pd 15.4737 12.8729 10.6735
Au 9.99887 12.9193 15.7105
Pd 10.4677 14.8871 17.5727
Au 11.0587 10.5509 16.4583
Pd 12.7511 12.8252 15.8652
Au 11.5384 12.5646 18.5178
Pd 12.3729 10.2689 19.8821
Au 8.56729 7.59833 19.4867
Pd 11.9858 8.42364 17.952
Au 14.9752 10.7039 21.0322
Pd 13.0013 10.2001 25.9918
Au 13.1901 12.9825 26.3879
Pd 14.2904 12.97 23.9118
Pd 14.1843 18.2713 3.88784
Au 16.9339 17.9411 3.6333
Au 13.9768 15.851 5.25427
Pd 12.7844 15.7708 7.77652
Au 15.5092 15.4661 7.56195
Pd 15.7228 17.8992 6.11808
Au 12.72 13.1525 10.8244
Pd 10.2861 15.6 12.8304
Au 14.1551 12.8988 13.2064
Pd 14.2794 15.3887 10.0834
Au 8.94529 15.4299 15.2548
Pd 10.5857 17.3186 16.3089
Au 13.1844 14.9886 17.7973
Pd 11.7453 15.1985 15.1619
Au 11.5337 16.4117 19.6638
Pd 10.6455 13.7273 22.2535
Au 13.5973 17.3778 21.6079
Pd 15.6059 18.9928 21.1376
Au 13.6278 15.7564 26.2434
Pd 15.6918 13.9819 25.9485
Au 11.0061 14.6741 26.6968
Pd 15.1824 15.6452 20.0757
Pd 13.1599 20.6113 5.02224
Au 15.9083 20.296 4.74129
Au 12.972 18.2183 6.35049
Pd 11.7868 18.1329 8.90071
Au 14.5018 17.8303 8.66536
Pd 14.709 20.2395 7.25466
Au 11.5731 15.6714 10.3081
Pd 10.4811 17.9758 11.4155
Au 13.0298 15.3328 12.6152
Pd 13.2426 17.7549 11.2113
Au 9.30157 17.9556 13.8681
Pd 8.15398 21.8368 18.0894
Au 13.3622 17.348 16.1873
Pd 14.1755 22.1643 13.1243
Au 13.8769 17.5826 18.8992
Pd 13.4355 20.1487 19.8859
Au 17.63 19.1447 23.2847
Pd 12.0122 21.5074 17.5899
Au 19.0222 14.8699 25.9296
Pd 16.134 21.2766 22.7109
Au 19.4902 19.4253 25.4457
Pd 14.6203 22.1615 18.4755
Pd 12.126 22.9394 6.23193
Au 16.458 22.2158 8.1901
Au 11.957 20.5478 7.51433
Pd 10.9541 22.8041 8.81172
Au 13.4665 20.1807 9.83411
Pd 15.2655 22.2067 10.649
Au 10.7076 20.4445 10.1733
Pd 10.4607 26.3371 9.97441
Au 10.374 24.0751 11.2466
Pd 12.4791 22.4725 11.0976
Au 12.0199 17.6027 13.7693
Pd 7.87046 26.1129 14.8123
Au 8.75973 24.5214 16.7855
Pd 9.88274 22.2139 15.9981
Au 10.7705 25.8614 18.0164
Pd 7.17973 22.5367 15.6254
Au 11.9231 22.3423 20.6543
Pd 10.4757 25.8878 15.2764
Au 12.3758 20.0141 25.0651
Pd 14.512 22.339 21.0992
Au 13.3503 24.7104 21.7584
Pd 15.5942 26.8084 18.475
Pd 14.183 4.9227 9.95692
Pd 14.626 4.53815 12.775
Pd 13.1988 6.56518 7.96502
Pd 12.4084 4.10386 14.5394
Pd 16.7062 2.6893 11.9495
Pd 17.8075 3.10172 18.6545
Pd 17.8892 2.51633 15.0341
Pd 14.7915 6.42434 23.2233
Pd 20.6282 6.01674 22.5269
Pd 13.9961 10.2696 23.5261
Pd 21.5156 3.96942 18.7183
Pd 16.9078 7.13466 6.57711
Au 15.7676 7.04971 9.09312
Au 12.1346 4.09185 11.6988
Pd 14.6447 6.97997 11.6284
Au 16.7418 5.23432 10.9935
Pd 16.1771 9.0913 10.8792
Au 14.8308 4.55265 15.6221
Pd 16.1578 6.85142 15.1265
Au 17.1665 4.68611 13.7126
Pd 17.2085 7.25185 12.692
Au 12.6533 4.49772 17.4626
Pd 9.46281 3.9256 18.9287
Au 13.2162 6.35785 19.5491
Pd 18.6994 7.12385 16.1553
Au 13.9812 2.68033 18.8894
Pd 15.6871 6.83665 20.716
Au 14.4825 4.44451 21.0434
Pd 17.4199 4.75652 16.4861
Au 16.82 6.99107 18.2216
Pd 10.6853 9.3786 25.0807
Au 12.7639 7.91876 24.1942
Pd 17.0241 9.09572 20.1852
Pd 17.9512 15.5805 2.70573
Au 17.5861 10.949 3.88365
Au 16.3571 10.844 6.34868
Pd 16.7059 12.9437 8.11775
Au 16.4426 11.1658 12.7034
Pd 17.9342 13.0019 5.61416
Au 15.0194 8.91884 13.5196
Pd 14.924 11.1716 15.095
Au 17.5448 9.2899 14.6079
Pd 16.6326 13.3968 14.3454
Au 15.6386 9.07563 16.5787
Pd 13.58 10.8498 17.5238
Au 16.0863 11.1398 18.5143
Pd 17.3849 11.5793 16.1372
Au 14.5377 8.72659 19.0373
Pd 17.4878 11.77 20.757
Au 20.5427 10.2721 24.1245
Pd 16.8731 13.7824 19.0522
Au 16.2802 8.64354 22.7913
Pd 17.8346 12.43 25.5498
Au 17.4354 6.09097 22.7942
Pd 18.6053 9.87619 22.2848
Pd 18.6665 19.8611 4.63386
Au 19.6876 17.5362 3.53833
Au 18.4843 17.5218 5.94077
Pd 17.2624 17.4873 8.45515
Au 18.2723 15.1144 7.35654
Pd 18.7913 20.9978 9.2272
Au 17.0145 15.0621 9.87771
Pd 15.7588 15.0537 12.3914
Au 16.9948 16.1542 14.6228
Pd 17.2646 18.5528 13.1726
Au 15.2617 13.2532 16.9046
Pd 15.7273 16.0659 17.3351
Au 17.8599 14.3912 16.5984
Pd 16.0103 18.4715 15.7429
Au 14.1266 12.95 19.4459
Pd 20.1499 14.6809 23.4357
Au 15.6859 13.5946 21.7077
Pd 18.3051 14.4324 21.3164
Au 16.3695 16.5305 25.6008
Pd 21.5638 16.9617 23.5373
Au 16.8584 19.1563 25.9023
Pd 21.6247 12.3777 22.7277
Pd 13.6865 22.5453 8.45597
Au 17.6513 22.2314 5.72165
Au 17.4787 19.8775 7.05686
Pd 16.2513 19.831 9.56503
Au 17.5291 20.9607 11.7472
Pd 17.7814 23.3137 10.3531
Au 16.006 17.4328 10.9759
Pd 14.7584 17.3803 13.5293
Au 16.6009 20.8964 17.0096
Pd 16.3284 20.9176 14.2737
Au 14.4569 15.041 15.0329
Pd 12.0881 22.0005 14.6421
Au 19.5386 16.8127 21.6213
Pd 20.3152 26.4041 19.5579
Au 14.057 19.7806 17.2724
Pd 12.8208 24.1013 18.8009
Au 22.0016 14.7993 25.4805
Pd 11.8991 24.2783 13.4301
Au 17.6588 16.435 19.4787
Pd 20.2929 19.204 22.8445
Au 20.779 17.1156 26.0759
Pd 16.7756 16.6765 22.1492
Pd 16.6048 24.4926 6.91031
Au 13.8219 24.8548 7.13801
Au 14.8715 22.6309 5.90129
Pd 16.561 23.3382 12.8327
Au 15.0107 19.7768 12.0777
Pd 12.3135 26.3574 11.8921
Au 12.1728 20.0502 12.4614
Pd 7.74098 24.4986 11.5986
Au 11.0987 25.1515 7.55847
Pd 18.0134 25.5719 9.01531
Au 10.1152 21.7837 12.8256
Pd 12.8457 26.5663 14.5338
Au 2.88022 21.0565 14.2986
Pd 21.9054 25.5296 15.0756
Au 9.72369 26.1911 12.6935
Pd 13.2282 26.4907 19.811
Au 13.1423 26.542 17.1707
Pd 15.2845 24.4753 19.7584
Au 15.5386 26.4483 21.3126
Pd 17.8836 25.6763 22.1977
Au 20.6511 21.6148 24.2129
Pd 14.5426 24.5313 14.4802
Pd 17.8033 5.39821 8.40611
Pd 16.0952 3.27115 9.30293
Pd 20.336 5.70857 9.41324
Pd 19.2361 2.95293 12.6743
Pd 18.6038 3.56913 10.138
Pd 15.4383 4.75619 18.4409
Pd 20.5563 2.16886 14.7752
Pd 17.2404 4.76686 20.5234
Pd 19.7497 3.35008 16.9195
Pd 19.1177 7.81457 23.7858
Pd 21.1917 5.90505 16.8158
Pd 17.3511 9.15608 8.32866
Au 15.3203 5.05079 7.44273
Au 18.3947 7.40013 10.228
Pd 18.6723 9.53198 12.0452
Au 21.0093 7.91548 11.4868
Pd 19.9157 9.59072 9.56302
Au 21.1013 3.49263 10.664
Pd 19.6202 7.6841 13.8016
Au 21.8532 6.2546 13.6985
Pd 21.0308 10.0829 13.4708
Au 19.5711 5.5037 11.9957
Pd 17.999 9.35258 17.704
Au 19.713 4.82466 14.7168
Pd 21.6254 8.27717 15.6138
Au 19.0927 5.46786 18.5367
Pd 19.6409 9.892 19.8592
Au 21.5235 6.45943 19.8907
Pd 21.7453 10.0834 17.9867
Au 20.2143 7.96252 18.1791
Pd 26.0498 16.833 24.5668
Au 19.8523 4.24763 20.7636
Pd 20.9723 8.63503 21.8228
Pd 19.1363 13.0973 3.2271
Au 18.9258 11.2831 7.57243
Au 17.6902 11.258 10.1124
Pd 17.9529 13.404 11.8752
Au 20.1538 11.775 11.3773
Pd 19.2265 13.4444 9.36495
Au 18.8839 11.7379 13.8594
Pd 19.2076 14.5222 14.0815
Au 21.4571 12.8821 13.614
Pd 20.507 14.5498 11.5792
Au 19.8046 10.1395 15.9724
Pd 20.1129 12.9192 16.0961
Au 22.2916 11.3232 15.6967
Pd 22.639 14.0564 15.9517
Au 18.9296 11.9054 18.2609
Pd 20.0025 12.4747 20.6155
Au 22.0883 10.9443 20.545
Pd 21.7891 12.786 18.3211
Au 18.8246 7.15699 20.7681
Pd 21.806 7.9787 24.217
Au 17.7468 9.81814 24.9321
Pd 23.1227 12.3399 24.8104
Pd 18.981 23.3281 7.86476
Au 21.9561 16.2951 4.62909
Au 19.5228 15.1674 4.8237
Pd 18.5346 18.6111 10.6439
Au 19.5482 16.2386 9.56669
Pd 19.7877 18.6515 8.12898
Au 18.2815 16.1949 12.0777
Pd 19.5074 17.297 14.2667
Au 21.7442 15.6573 13.8167
Pd 20.7927 17.3404 11.7508
Au 20.4457 15.6644 16.3539
Pd 16.3061 18.5969 18.5187
Au 20.8298 19.5118 20.1684
Pd 20.7578 18.4303 16.4255
Au 19.6006 14.5236 18.7282
Pd 18.9256 12.3498 23.1148
Au 23.3675 20.6585 19.8351
Pd 20.1836 17.2028 18.865
Au 21.2483 14.7638 20.8719
Pd 23.5098 17.031 25.3908
Au 15.418 11.2495 25.8103
Pd 21.4349 21.7222 21.5565
Pd 20.2735 24.4522 10.0523
Au 21.3039 22.159 8.90107
Au 21.0609 19.769 10.29
Pd 16.8727 23.283 15.577
Au 19.7716 19.7183 12.8333
Pd 20.0555 22.1237 11.4088
Au 13.8318 19.7504 14.6052
Pd 14.3817 22.193 15.8774
Au 22.0264 18.456 13.9331
Pd 18.517 19.6554 15.3347
Au 18.8272 19.5733 18.0785
Pd 17.1996 23.2653 18.2901
Au 21.3812 20.744 17.7625
Pd 23.2786 19.6119 16.0739
Au 25.3632 20.5438 21.8566
Pd 12.2088 24.1151 16.2331
Au 21.81 23.8934 22.9725
Pd 16.6806 21.0243 19.8198
Au 22.1768 19.3535 24.9026
Pd 19.0685 23.6585 23.3501
Au 23.3496 21.6157 23.6127
Pd 18.2374 18.9182 20.6415
Pd 19.0447 24.447 12.5486
Au 22.2277 25.4438 17.8628
Au 22.571 23.2927 11.1135
Pd 19.9265 24.0179 20.8124
Au 19.2786 26.7181 11.1951
Pd 18.7892 22.0897 13.9232
Au 16.7872 25.7077 11.3991
Pd 12.6727 24.8226 9.66003
Au 19.1117 22.0263 16.6559
Pd 17.5104 25.5978 16.9466
Au 15.4337 24.6264 9.30069
Pd 14.2643 24.5287 11.7957
Au 25.7942 20.7855 15.7428
Pd 24.3793 24.0944 18.8655
Au 23.7566 24.3663 13.3764
Pd 14.97 26.8286 13.0014
Au 13.4019 22.5617 23.5717
Pd 14.9611 24.5583 17.0963
Au 20.4723 26.0601 22.258
Pd 17.7807 25.6394 19.602
Au 18.7412 16.9381 24.2771
Pd 19.7192 24.2808 18.0852
Pd 19.4324 7.55959 7.69548
Pd 23.8636 8.10399 10.7385
Pd 21.0702 9.68277 7.08564
Pd 22.4627 5.73482 11.0922
Pd 24.4738 6.40904 12.796
Pd 21.8298 3.76095 13.085
Pd 26.5966 12.3239 17.7103
Pd 23.0961 7.68777 17.8374
Pd 22.3215 3.93594 15.693
Pd 24.4619 6.40728 19.9509
Pd 25.5091 8.85869 19.1785
Pd 18.5231 9.24215 5.79914
Au 20.1442 11.3445 5.07592
Au 21.92 7.85405 8.94188
Pd 22.3638 10.2193 11.0675
Au 25.5849 9.37154 12.3397
Pd 23.4112 10.1201 8.59911
Au 23.265 8.60292 13.4196
Pd 23.7758 11.239 13.3113
Au 24.8597 11.2802 10.6416
Pd 23.914 12.9313 8.64075
Au 23.791 6.37753 15.4628
Pd 26.4512 9.76803 16.9618
Au 23.7058 5.06298 17.8252
Pd 26.0871 12.5136 12.8132
Au 23.1304 8.68093 20.2528
Pd 24.0893 9.41907 15.9751
Au 26.4358 10.6107 14.5373
Pd 24.4336 13.9028 18.0204
Au 25.1985 8.45312 21.8578
Pd 22.6541 4.54115 21.0894
Au 23.1907 10.0445 22.9362
Pd 25.8181 7.97907 14.6401
Pd 20.4617 13.4736 6.87245
Au 21.6421 13.5384 4.45027
Au 21.4079 11.8096 8.89663
Pd 21.7882 14.5791 9.08157
Au 23.0248 14.6046 6.5867
Pd 21.0005 18.6633 5.67536
Au 22.7671 12.9206 11.1574
Pd 23.9727 14.0283 13.437
Au 22.5955 11.8497 6.45099
Pd 25.1874 14.0938 10.8487
Au 24.7995 12.3454 15.6774
Pd 22.3143 15.5221 18.4312
Au 27.1513 13.4898 15.2266
Pd 25.1321 15.1839 15.6546
Au 24.2078 11.1384 18.2134
Pd 23.4244 13.136 20.4879
Au 25.6171 7.11522 17.232
Pd 26.069 13.5651 20.1317
Au 23.1693 6.85657 22.3011
Pd 20.4812 12.657 25.2946
Au 26.5842 18.0455 22.2945
Pd 24.9273 10.9169 20.7926
Pd 22.2808 19.7544 7.85008
Au 20.0197 21.031 6.73232
Au 20.8033 16.2648 7.06463
Pd 22.0535 17.3575 9.25812
Au 24.2877 15.7269 8.79545
Pd 23.226 17.3708 6.81953
Au 23.046 15.6859 11.3015
Pd 26.4033 15.2013 13.1393
Au 27.5764 16.3019 15.3589
Pd 25.5045 16.8334 11.0329
Au 22.9743 16.8251 16.0472
Pd 24.8881 16.668 18.0357
Au 26.9861 14.9732 17.7243
Pd 25.4691 17.969 15.693
Au 24.2404 15.5798 20.4169
Pd 22.1436 17.2457 20.8431
Au 24.8203 12.6456 22.7899
Pd 26.7444 16.4368 20.0638
Au 23.0125 14.6578 22.9088
Pd 22.8867 19.4087 22.2329
Au 24.7138 14.5766 24.874
Pd 24.1357 17.0576 22.7564
Pd 21.2798 23.2498 13.6398
Au 23.599 20.9086 9.98826
Au 22.3139 20.9024 12.488
Pd 21.0194 20.858 15.0094
Au 24.5139 18.4811 8.98565
Pd 24.7899 22.0095 12.2421
Au 23.3176 18.4785 11.4235
Pd 24.5351 19.5921 13.6167
Au 26.7624 17.9497 13.203
Pd 25.7428 19.5984 11.2016
Au 26.9668 20.7221 13.3536
Pd 22.6995 18.3121 18.4157
Au 27.3876 17.7785 17.727
Pd 24.2684 16.8079 13.5135
Au 18.2191 17.2141 16.839
Pd 21.933 22.995 19.1646
Au 27.0971 19.3182 19.9879
Pd 24.6633 18.2765 20.3792
Au 24.8127 19.2314 24.1861
Pd 17.2823 14.4631 23.8227
Au 25.9977 15.114 22.4455
Pd 27.5604 20.5959 17.6793
Pd 17.5052 27.8346 12.917
Au 15.3518 26.9679 15.705
Au 19.7528 26.7726 13.9561
Pd 25.1759 19.4551 18.0433
Au 21.5297 25.5714 12.2705
Pd 24.0983 24.3148 16.1401
Au 17.151 25.5952 14.2085
Pd 23.871 21.8969 17.455
Au 23.5133 22.0269 14.7176
Pd 19.4064 24.4216 15.3157
Au 27.8915 19.0964 15.3846
Pd 25.9367 23.1053 14.4539
Au 26.2839 23.0281 17.1519
Pd 21.6281 23.197 16.4189
Au 17.9027 27.8268 15.5845
Pd 20.0187 26.6136 16.7754
Au 23.9146 22.9251 21.2746
Pd 25.7971 21.763 19.4678
Au 19.334 21.8384 19.4435
Pd 17.3425 23.3184 21.0327
Au 18.7952 21.3199 22.061
Pd 22.433 25.1383 20.614
