665
Atoms. Timestep: 20557
Pd 12.9361 7.05111 5.87114
Pd 11.4384 19.0167 20.6726
Pd 20.9526 10.1878 9.91073
Pd 13.7708 11.7455 21.222
Pd 18.0883 19.4068 17.6638
Au 14.9806 18.4727 5.44028
Au 13.8365 8.08983 12.6886
Pd 15.874 6.61581 21.2152
Au 9.79718 12.582 3.96887
Pd 12.3242 4.19105 12.5136
Au 17.1659 7.86774 7.98741
Pd 10.1414 14.6294 19.9242
Au 13.8986 8.03014 22.4093
Pd 10.5733 9.30946 25.5456
Au 15.6943 25.4004 8.03678
Pd 19.4363 7.64945 10.0787
Au 5.51477 7.95908 10.8678
Au 21.2217 8.48962 17.095
Pd 13.3204 5.03986 7.61587
Au 18.2668 9.88426 22.7636
Pd 13.9557 22.9747 8.07805
Au 6.10072 16.75 7.37882
Pd 16.2302 10.0293 9.23435
Au 7.56147 17.8434 22.3637
Pd 8.91645 21.7322 17.8009
Au 23.4031 27.2616 17.391
Pd 14.1221 22.4346 16.6755
Au 5.28086 16.4109 21.4978
Au 9.38036 9.76011 13.8397
Pd 11.3818 4.74334 9.4477
Au 11.1583 4.8454 20.3286
Pd 15.5038 5.52933 18.6302
Au 24.3625 25.2289 15.9613
Pd 9.09031 20.4247 20.3847
Au 20.5253 25.0806 24.2147
Pd 21.6962 14.9441 20.3853
Au 24.8121 20.62 21.4702
Pd 9.7478 7.49628 23.7342
Au 4.83129 9.37892 8.62999
Au 2.45161 15.1904 13.1575
Pd 18.7013 6.12515 14.7033
Au 12.9089 15.4375 3.70927
Pd 7.1589 21.6095 9.46865
Au 5.72812 11.478 7.25868
Pd 11.9202 23.582 20.8759
Au 4.65738 9.02573 16.1188
Pd 23.2626 25.178 13.3876
Au 12.8749 18.8134 22.9767
Pd 6.42634 11.1323 15.494
Au 13.8689 24.7423 6.12726
Au 14.9195 22.6873 4.72097
Pd 10.6983 11.8382 15.4479
Au 18.0846 5.60413 6.73565
Pd 8.73495 10.5399 16.5092
Au 9.86644 19.3569 22.8775
Pd 15.7313 25.718 13.1255
Au 2.6779 17.6882 17.6452
Pd 13.9415 21.429 19.7964
Au 7.74453 23.6931 16.2372
Pd 17.0468 20.4575 12.5721
Pd 12.6117 9.6389 5.62801
Pd 22.9681 12.4361 9.82973
Pd 19.4984 6.52527 17.2597
Pd 16.443 24.9652 20.9825
Pd 14.9983 10.0942 14.4538
Pd 11.1895 16.9403 19.057
Pd 14.6782 6.06066 24.1638
Pd 11.2044 18.3551 25.0467
Pd 11.233 23.3 12.975
Pd 8.80187 10.4239 19.3309
Pd 15.9713 28.316 14.3563
Pd 7.61035 11.7608 5.39017
Au 8.05503 23.9291 10.7429
Au 22.6171 27.1371 14.9169
Pd 15.1953 5.80863 11.7561
Au 12.0601 12.9723 2.49663
Pd 6.3056 17.2069 13.2996
Au 4.59482 12.0605 9.58602
Pd 7.37097 5.86195 10.6449
Au 10.4927 8.49688 6.92596
Pd 12.2222 25.7778 13.9322
Au 8.25596 23.5968 13.419
Pd 17.074 7.62091 18.0734
Au 4.36015 11.571 17.2078
Pd 17.1159 15.0259 15.3153
Au 9.09096 10.7832 11.3713
Pd 13.3846 16.9471 17.6331
Au 7.68266 12.4781 23.3334
Pd 7.43312 12.671 8.97699
Au 8.20607 14.5751 4.6604
Pd 18.5729 15.573 25.8556
Au 12.4623 12.9753 17.2754
Pd 16.053 16.1577 25.0059
Pd 11.5045 19.7471 14.3882
Au 9.90922 25.3809 12.1876
Au 25.892 20.3641 12.5911
Pd 5.60492 14.3007 19.1996
Au 18.1942 3.01335 12.4836
Pd 12.6116 23.0576 10.4957
Au 9.04095 13.4887 11.1662
Pd 3.86368 13.0486 12.1737
Au 12.3267 3.95609 15.3213
Pd 13.5415 7.87664 15.3252
Au 16.2524 20.4464 26.3831
Pd 14.7151 14.233 11.3964
Au 9.30589 23.4234 19.9796
Pd 22.4214 26.9776 19.7323
Au 5.34622 11.6448 19.8817
Pd 8.74525 17.7848 19.8212
Au 25.1869 16.7833 24.0055
Pd 18.1553 13.9073 27.9929
Au 7.62521 7.93812 19.8424
Pd 12.4761 17.4426 5.569
Au 12.0515 13.8941 21.8143
Pd 15.6959 27.2845 19.6996
Pd 18.0551 27.981 18.027
Au 15.7547 20.2963 3.72953
Au 16.8698 10.3148 3.91051
Pd 8.64241 19.7987 10.7202
Au 19.6037 14.5448 18.7908
Pd 16.2601 12.4371 8.07905
Au 10.6975 16.1169 26.3988
Pd 14.011 11.6187 9.41582
Au 7.02259 22.0228 19.9007
Pd 11.3999 22.1541 8.32148
Au 9.81611 22.348 15.2847
Pd 4.86421 19.155 17.5128
Au 9.50981 14.271 22.6037
Pd 13.9087 23.8691 12.7325
Au 11.8525 26.0358 16.8502
Pd 8.68556 9.94352 23.6872
Au 14.013 15.2351 26.7496
Pd 7.11627 15.2819 23.4258
Au 7.58399 15.2879 9.5887
Pd 10.9342 8.24813 11.9018
Au 9.06155 14.3603 25.204
Pd 22.8267 21.463 22.9837
Pd 11.1715 10.3517 3.55113
Au 9.99121 24.8961 22.0571
Au 13.0279 25.3806 8.71583
Pd 14.8956 3.29114 12.6374
Au 14.0725 17.8202 3.06489
Pd 12.3611 12.4253 4.97263
Au 6.2812 17.0421 18.9636
Pd 9.97167 9.05406 9.4684
Au 15.0701 8.57012 4.88383
Pd 8.84077 17.2439 17.1562
Au 6.54783 14.0575 6.72952
Pd 26.032 20.2637 16.914
Au 4.15615 10.9863 14.1332
Pd 6.70918 9.93994 12.9112
Au 15.0241 10.4097 27.1704
Pd 23.3281 22.6969 20.4492
Au 20.0452 21.0255 22.4384
Pd 21.7992 15.762 14.49
Au 10.091 11.9455 24.6938
Pd 14.8616 17.1928 15.2667
Au 12.8334 16.4559 21.4187
Pd 16.6701 23.5827 16.7376
Pd 14.1552 10.8548 3.79131
Au 19.8045 21.2493 5.4739
Au 11.205 24.3706 6.99458
Pd 8.30699 8.1749 11.3987
Au 13.6858 20.5939 9.39678
Pd 5.30693 19.7681 13.5972
Au 15.4291 1.03487 16.5532
Pd 17.0936 20.1999 6.2559
Au 6.49217 19.3654 20.3503
Pd 15.6124 18.9988 10.9365
Au 11.4233 20.9585 24.463
Pd 12.955 10.4463 16.1731
Au 27.4606 17.9762 17.2857
Pd 13.3155 5.66252 17.1247
Au 16.4551 19.9806 19.9224
Pd 12.6757 23.7483 18.3495
Au 14.9313 8.64708 19.6183
Pd 7.95047 14.9212 13.1933
Au 9.76189 22.1517 22.367
Pd 21.3132 26.2965 11.8196
Au 23.954 24.9034 18.685
Pd 16.7005 13.6591 25.5752
Pd 12.672 6.38779 11.0493
Pd 23.8363 13.3162 20.399
Pd 5.72807 15.0184 11.7143
Pd 14.3232 23.3277 21.9209
Pd 24.0309 11.7823 23.7438
Pd 11.5033 15.7596 23.8429
Pd 22.0671 10.9713 17.2083
Pd 26.4479 16.8894 19.6887
Pd 15.1418 3.81796 16.1401
Pd 18.3214 12.5853 12.2878
Pd 13.9561 14.1952 6.01985
Pd 19.1938 10.0034 5.46255
Au 6.43626 9.07972 6.2992
Au 23.2536 12.5476 7.12242
Pd 16.2421 19.7536 15.2314
Au 18.9929 4.25604 21.6656
Pd 19.7913 16.5128 6.4601
Au 17.5618 4.74149 17.0051
Pd 12.9624 18.3852 11.1673
Au 8.66698 15.8928 7.08668
Pd 11.7619 6.55196 13.8283
Au 13.2648 6.54797 19.853
Pd 8.3724 12.1849 13.5918
Au 21.7049 16.1081 23.0477
Pd 11.8567 10.5249 10.8662
Au 10.023 4.49779 14.286
Pd 16.2096 4.00458 20.8101
Au 7.07713 12.2291 18.007
Pd 16.2072 12.1996 10.8617
Au 6.40882 9.64436 18.0724
Pd 16.4282 22.7133 7.0904
Au 3.26268 14.035 17.661
Pd 15.3013 9.21892 16.9431
Pd 18.7155 8.21321 12.733
Au 10.3633 15.0945 2.92134
Au 9.46503 17.002 4.7054
Pd 12.6616 15.8568 10.3787
Au 11.1563 19.7521 9.67481
Pd 16.7409 7.79484 10.7378
Au 17.7282 5.62873 9.34204
Pd 13.8979 8.90359 10.1671
Au 3.92426 17.3737 12.3126
Pd 9.07397 6.22713 21.27
Au 10.3881 17.9376 7.2095
Pd 5.43737 17.0409 9.98246
Au 5.80514 13.6079 21.7647
Pd 12.8207 8.2396 17.835
Au 5.32112 6.50105 15.3142
Pd 12.5589 12.1025 23.6841
Au 10.7794 5.77547 6.81443
Pd 4.65299 20.9695 19.446
Au 16.6021 2.04311 14.4231
Pd 11.2641 21.579 19.3621
Au 17.7258 18.0662 26.2357
Pd 10.571 24.6326 9.65857
Pd 23.1096 23.0356 15.3009
Au 14.5589 13.4126 3.36183
Au 15.6418 18.9328 8.19531
Pd 9.89857 21.9414 6.03689
Au 7.27919 21.385 6.75453
Pd 21.0526 20.7935 15.0313
Au 18.4324 19.4601 4.05839
Pd 13.1738 12.634 14.6093
Au 17.2446 6.28973 25.515
Pd 22.8303 17.7736 15.8203
Au 12.1198 20.8348 11.9624
Pd 18.5781 6.94085 22.1011
Au 20.3719 23.4663 9.11962
Pd 15.7982 6.57301 16.0303
Au 20.6686 26.2131 21.6807
Pd 10.1622 16.8084 21.7824
Au 14.681 25.5203 17.6337
Pd 12.0636 23.708 15.5909
Au 18.9564 24.301 20.6542
Pd 9.84632 25.0934 14.979
Au 5.12297 18.9474 22.4704
Pd 8.28564 13.399 15.8744
Pd 15.0443 16.1303 19.5583
Au 19.5882 24.2511 11.8015
Au 22.4974 23.9713 10.8711
Pd 6.1739 21.6887 17.3343
Au 10.9924 12.3255 12.772
Pd 15.1669 16.6655 9.79072
Au 7.21446 8.49023 15.3018
Pd 17.7054 23.8748 9.16309
Au 8.86839 5.58268 18.518
Pd 10.1179 11.8039 9.09249
Au 15.612 10.0062 21.9883
Pd 18.2214 26.5745 13.5313
Au 15.0807 12.2037 16.4686
Pd 12.3096 21.2253 21.9749
Au 6.60613 6.95716 13.0814
Pd 10.4455 18.5248 12.218
Au 17.36 25.4711 18.4921
Pd 12.9887 20.0017 4.37986
Au 17.6559 19.4903 22.2624
Pd 25.0865 13.2195 17.8997
Au 24.4478 22.9891 12.6923
Pd 13.7658 10.8837 18.6406
Pd 20.7957 12.2367 8.14911
Au 16.714 17.7024 3.13973
Au 7.21761 15.8519 15.5913
Pd 19.9672 7.6013 19.7282
Au 15.5961 13.2275 27.986
Pd 19.7441 7.8094 7.07544
Au 4.46829 8.41718 13.4969
Pd 13.6195 17.1086 24.7772
Au 8.0026 17.9558 8.8853
Pd 21.281 21.5362 11.2385
Au 3.95989 18.4589 20.0185
Pd 3.30903 13.3128 15.0356
Au 8.80393 9.43445 4.87099
Pd 18.7981 19.4308 14.4084
Au 3.8856 18.0008 15.0493
Pd 22.3296 13.5768 18.0461
Au 14.2642 18.535 20.4638
Pd 11.6822 21.2448 16.7576
Au 15.8434 4.25716 8.05356
Pd 15.8775 22.2722 14.4143
Au 13.9063 27.5446 12.753
Pd 14.5937 16.6864 12.404
Pd 17.6916 10.386 13.7611
Pd 16.2791 7.57758 13.6197
Pd 9.75505 12.6784 17.9939
Pd 18.0001 24.0985 14.4255
Pd 13.8938 9.9061 24.5417
Pd 17.2193 14.6967 20.2074
Pd 16.5186 3.68458 10.5873
Pd 18.4435 3.26287 19.19
Pd 14.9124 6.53584 9.17276
Pd 20.2284 17.4792 25.0987
Pd 11.585 6.90378 21.9884
Pd 17.5073 16.9238 8.32196
Au 16.7309 17.8379 13.3261
Au 2.43112 15.7884 15.7907
Pd 16.4777 7.96018 23.5758
Au 25.0123 18.5388 10.7992
Pd 24.0898 20.7077 18.829
Au 17.5287 11.4989 27.0815
Pd 22.0216 17.6244 7.37417
Au 13.2492 2.34253 17.3101
Pd 14.1386 5.51211 14.1567
Au 12.5408 14.6122 12.8487
Pd 14.2735 19.3135 13.3606
Au 20.4964 11.5068 22.7971
Pd 19.4531 13.0764 25.9304
Au 15.3786 12.3914 23.3552
Pd 19.1931 10.8263 20.3459
Au 20.8511 3.639 12.9801
Pd 18.1179 12.3699 23.6986
Au 10.6972 7.62288 4.47124
Pd 9.10337 16.8958 24.2963
Au 13.7684 4.99225 21.9251
Pd 13.5499 3.89055 19.4379
Pd 22.8248 16.8607 9.94711
Au 20.2326 3.91344 17.1992
Au 18.6806 21.7301 10.6735
Pd 8.09115 17.1469 11.442
Au 25.0457 13.1401 11.4832
Pd 10.4384 17.1991 9.77028
Au 17.5352 22.2904 4.56457
Pd 19.0732 8.03187 24.5262
Au 21.5286 9.92404 7.08253
Pd 22.2585 13.469 22.5235
Au 12.2231 7.34134 8.62314
Pd 6.86591 10.2139 10.0233
Au 17.9666 8.42686 15.6385
Pd 9.21351 20.348 8.0618
Au 10.6705 7.4196 19.279
Pd 17.5831 17.5354 15.9128
Au 22.9181 17.3506 25.1704
Pd 15.7803 9.85913 11.9629
Au 7.17817 10.421 21.4684
Pd 20.6577 8.81175 22.063
Au 19.4514 5.39592 24.1138
Pd 21.6979 16.2542 17.8059
Pd 23.6799 15.1301 16.3695
Au 25.9872 18.3495 22.0341
Au 16.5283 28.1281 11.838
Pd 10.5242 15.1191 17.1721
Au 14.2801 14.2425 8.71799
Pd 12.2984 17.2296 13.712
Au 15.0355 26.4035 22.5555
Pd 14.3157 12.5553 25.7843
Au 5.89346 13.1793 13.9114
Pd 8.38058 7.16139 6.38942
Au 12.8395 8.77142 26.8942
Pd 21.3279 15.1036 25.6798
Au 9.99142 5.6384 11.6626
Pd 15.5849 15.6981 4.51365
Au 18.2004 27.1141 20.6527
Pd 19.3066 18.9717 7.0919
Au 11.5658 9.63969 23.1319
Pd 6.0927 19.2485 11.1022
Au 8.07221 12.8507 20.4578
Pd 6.50596 12.3963 11.4964
Au 18.0951 24.6925 25.4247
Pd 23.135 20.7583 13.3676
Pd 13.0117 18.071 8.48694
Au 18.8756 10.0486 8.20021
Au 10.3082 19.5477 4.93045
Pd 17.8363 5.69329 12.0337
Au 3.31211 15.3059 10.7039
Pd 22.0285 9.84932 24.2216
Au 8.30166 10.2884 7.65805
Pd 16.6552 10.1947 6.53456
Au 21.4221 8.41814 11.8778
Pd 21.3601 18.5211 13.776
Au 7.18676 7.89102 8.68878
Pd 4.85094 16.3192 16.9468
Au 18.1838 25.9186 23.0038
Pd 16.4856 15.8133 27.5911
Au 7.40647 20.6483 22.4845
Pd 15.1214 23.9914 10.288
Au 3.54317 15.9455 19.4372
Pd 14.8832 26.6186 10.4053
Au 22.9442 6.5426 13.098
Pd 20.4818 22.0737 19.9223
Au 23.0425 18.4087 22.5528
Pd 13.2594 21.7282 14.2432
Pd 12.5085 25.635 11.3229
Au 5.10546 14.5303 8.92581
Au 9.92478 22.1707 10.5736
Pd 20.7882 27.8645 16.6847
Au 19.5355 19.1935 11.7954
Pd 14.7196 21.5349 11.7786
Au 26.7317 14.918 13.1416
Pd 14.5151 24.5753 15.1618
Au 15.8857 23.1448 25.983
Pd 24.0802 15.6448 18.9712
Au 9.19032 13.2479 6.94244
Pd 7.72002 15.5054 20.8367
Au 4.41288 10.3401 11.5118
Pd 24.7465 19.0845 14.5967
Au 6.03316 19.489 8.26957
Pd 16.2671 24.1 23.5318
Au 16.9818 22.2791 21.3735
Pd 9.57335 21.1418 12.9923
Au 9.20218 19.6576 15.6955
Pd 4.72693 15.4864 14.3377
Au 27.3417 19.1106 14.8581
Pd 8.87361 23.1751 8.15779
Pd 24.3279 8.91672 13.3487
Pd 10.2125 14.6152 9.0736
Pd 11.9997 20.015 6.93054
Pd 19.6678 12.0617 17.868
Pd 16.6384 4.68031 14.1293
Pd 11.5576 12.1437 19.8001
Pd 19.3543 13.4149 21.2614
Pd 18.8886 19.868 24.6684
Pd 21.0737 13.2238 15.7324
Pd 21.4153 12.2063 20.0396
Pd 10.4513 11.0918 6.21765
Pd 16.5818 10.8195 18.8998
Au 16.5901 24.753 5.50847
Au 9.4547 6.4972 9.03853
Pd 17.8222 17.0937 11.0305
Au 18.8142 21.4785 8.00014
Pd 14.494 20.8246 6.62287
Au 10.9805 14.7614 5.52152
Pd 20.8931 14.1793 6.32663
Au 21.5075 7.20638 24.3208
Pd 22.2729 22.6364 17.8376
Au 26.0687 13.733 15.3955
Pd 17.2336 17.4851 20.4034
Au 25.4756 21.7662 14.8251
Pd 17.8498 2.1363 16.8232
Au 10.3144 14.4674 14.5074
Pd 9.68835 8.91961 21.3487
Au 14.9433 14.8582 17.0173
Pd 10.9228 8.71445 15.7018
Au 23.1791 8.03464 22.4742
Pd 17.3222 10.8992 16.3622
Au 24.1385 15.8757 21.6555
Pd 13.5968 19.7184 25.5703
Pd 18.0132 5.78144 19.6774
Au 19.1268 16.7426 13.8087
Au 24.5202 8.9766 20.4462
Pd 22.5742 7.09363 19.9892
Au 17.572 8.82114 26.6013
Pd 19.0384 3.51236 14.9051
Au 20.3167 5.62862 8.44635
Pd 12.648 17.6093 27.1806
Au 20.0646 17.1306 9.25713
Pd 11.0322 10.1948 18.0092
Au 24.5791 10.1078 16.0622
Pd 14.8355 14.7391 14.1739
Au 12.3968 7.45466 24.6324
Pd 11.8266 23.469 23.5619
Au 10.7 6.19736 16.4204
Pd 15.8063 20.8926 17.5728
Au 11.8325 13.8416 25.735
Pd 12.7921 14.7013 19.2414
Au 7.8148 4.71479 13.0486
Pd 16.7587 21.4603 23.9904
Au 12.1977 9.98913 13.6335
Pd 7.98544 14.9005 18.1735
Pd 13.8502 25.4 20.2017
Au 13.7086 19.5353 15.99
Au 20.8754 18.6839 4.93401
Pd 12.1554 15.7025 7.69067
Au 25.4173 13.7183 22.6445
Pd 20.923 16.7186 11.8427
Au 12.9534 8.38123 3.33201
Pd 12.1134 13.2446 10.4327
Au 25.3601 16.5831 15.049
Pd 25.1419 15.8723 11.201
Au 21.1406 6.04148 21.9967
Pd 15.8459 18.8187 24.2697
Au 15.598 28.2442 17.1741
Pd 17.3513 13.3388 17.647
Au 20.6488 4.99312 19.5641
Pd 18.7515 23.1946 23.2822
Au 7.4199 7.93843 22.4941
Pd 22.6099 14.6556 11.5145
Au 20.8792 22.3651 24.7634
Pd 19.3454 14.875 10.7397
Au 15.8431 2.77018 18.5086
Pd 19.3903 19.5791 20.0729
Pd 18.3681 10.1295 10.9522
Au 6.98076 21.603 12.1284
Au 24.0665 21.2286 10.7707
Pd 18.9801 14.6383 8.09904
Au 25.355 10.408 11.0832
Pd 24.1502 14.5428 13.6955
Au 10.3393 15.7524 12.0079
Pd 17.1179 15.0115 12.5872
Au 17.6013 7.862 5.2868
Pd 21.6853 9.60331 19.562
Au 13.8481 11.7415 12.1951
Pd 20.6559 25.4028 14.1962
Au 19.6011 15.4623 16.247
Pd 20.3308 6.10131 12.5677
Au 13.9984 14.6194 23.9839
Pd 10.0418 11.6089 21.9224
Au 24.8087 17.9403 17.4965
Pd 23.6046 17.186 12.9198
Au 12.4434 25.8273 22.3815
Pd 23.3266 20.5216 16.3157
Au 21.8463 20.3083 6.82047
Pd 20.0139 26.4371 18.8217
Pd 19.505 23.8138 17.9636
Au 14.9416 20.5052 22.2451
Au 13.2358 27.5114 18.5572
Pd 16.5526 14.7537 6.98584
Au 7.86037 18.7587 6.24084
Pd 18.3389 28.3832 15.4876
Au 11.4413 17.7676 3.1341
Pd 11.3463 17.7878 16.2282
Au 17.3914 17.3659 5.71764
Pd 23.6962 8.52044 17.9809
Au 22.3905 19.0839 11.3501
Pd 18.1889 25.9156 7.4049
Au 20.7597 19.7955 9.2417
Pd 26.4587 17.6167 12.8596
Au 11.1893 4.03513 17.8533
Pd 7.94573 19.1817 13.2845
Au 27.8892 16.4114 15.106
Pd 9.19398 7.10791 13.8766
Au 6.61954 18.5041 15.6363
Pd 19.2922 16.8029 3.81293
Au 18.5156 12.41 9.51864
Pd 18.2571 14.6795 5.0479
Pd 21.8539 7.89004 8.87207
Pd 20.3124 20.8562 17.5626
Pd 22.1579 6.0568 17.5519
Pd 19.3136 16.0973 21.358
Pd 16.0386 12.4994 13.7568
Pd 14.7641 14.3178 21.4661
Pd 15.4779 23.3508 19.1211
Pd 19.3838 17.2767 18.6884
Pd 20.7124 8.0374 14.5172
Pd 7.98629 5.7745 15.7981
Pd 23.6428 12.5555 15.7556
Pd 14.7147 16.5363 7.12629
Au 12.6476 15.3106 15.6161
Au 17.2767 27.4837 9.29098
Pd 9.38791 17.1108 14.358
Au 17.5427 8.71564 20.4289
Pd 18.5849 12.3872 6.61777
Au 21.1118 11.8404 5.19902
Pd 20.2409 18.2133 16.2789
Au 24.4268 14.5226 9.06861
Pd 12.0744 12.9297 7.6412
Au 13.8651 1.94593 14.6206
Pd 16.5043 10.4531 24.8298
Au 25.3936 12.0126 8.93385
Pd 17.3893 25.6457 11.0881
Au 12.1594 11.2224 26.4041
Pd 21.5952 14.7391 8.9147
Au 19.5176 10.5161 25.2853
Pd 22.393 10.2329 14.5813
Au 13.8941 4.07913 10.1229
Pd 19.1201 27.8047 11.3954
Au 16.9021 12.2358 21.1249
Pd 17.2264 16.0018 17.9457
Pd 15.3905 16.8933 22.4022
Au 20.4951 14.2151 3.68857
Au 23.8314 8.07686 10.824
Pd 20.367 23.2204 15.645
Au 24.9282 22.7976 17.3071
Pd 16.8585 14.6367 9.80427
Au 19.1154 25.885 16.2693
Pd 23.2185 7.68759 15.4906
Au 18.209 21.583 15.9604
Pd 18.971 9.47921 18.0484
Au 24.8366 17.0981 8.3841
Pd 15.0769 13.1558 19.123
Au 24.0786 18.231 20.047
Pd 21.5339 24.5025 19.604
Au 12.276 9.43099 20.4686
Pd 21.6202 23.0926 13.2333
Au 21.8098 12.4978 25.0039
Pd 14.2328 11.4406 6.6584
Au 7.1859 21.3485 14.8895
Pd 15.6459 18.2391 17.8492
Au 23.5866 10.0121 8.90948
Pd 12.9059 19.4463 18.4206
Pd 15.493 6.38074 6.45528
Au 21.3135 5.38731 15.0884
Au 18.6794 12.255 3.94984
Pd 16.2219 12.6402 5.23287
Au 21.4588 17.5276 20.3649
Pd 21.8647 16.2429 4.78582
Au 19.212 21.9006 13.3422
Pd 20.2723 10.6921 12.9105
Au 23.6663 14.6049 24.4877
Pd 24.5388 19.5692 24.1898
Au 19.6765 25.9776 9.60462
Pd 25.4188 11.4349 21.2589
Au 6.4159 6.96703 17.6362
Pd 18.9643 23.6222 6.51936
Au 21.6761 19.7234 24.6191
Pd 14.4645 8.74454 7.52227
Au 18.5313 12.8439 15.0404
Pd 18.0446 17.1377 23.5394
Au 21.2077 23.5001 22.1073
Pd 23.9841 11.0871 18.939
Au 7.51718 19.5071 17.9619
Pd 22.11 20.1768 20.694
Pd 24.8475 11.594 13.6394
Au 13.8457 27.2133 15.5056
Au 17.9539 21.9552 18.8501
Pd 5.63274 13.8296 16.4617
Au 20.7353 12.6495 11.0847
Pd 22.2634 12.7134 13.3939
Au 19.7096 4.25663 10.6329
Pd 23.4652 19.4008 8.79919
Au 16.9023 5.02448 23.1849
Pd 22.0605 18.9681 18.19
Au 14.0426 22.0343 24.3489
Pd 16.2317 21.4709 9.48845
Au 26.8715 15.8448 22.1242
Pd 16.5815 26.1858 15.7747
Au 19.902 10.5132 15.5811
Pd 26.2438 14.2484 20.0758
Au 26.4478 19.5314 19.4727
Pd 21.7766 25.2159 16.8704
Au 22.9571 23.97 23.9386
Pd 8.89422 8.08333 17.4096
Au 15.1404 7.95347 25.9643
Pd 23.2528 25.1664 21.5385
Pd 17.0586 14.7066 22.9115
Au 22.4941 21.9921 8.78564
Au 16.881 23.2175 12.1117
Pd 15.1798 17.9833 26.8718
Au 22.8913 10.6865 21.6919
Pd 17.9931 19.3264 9.52472
Au 22.8976 10.6613 11.8244
Pd 19.7147 14.5288 23.6455
Au 22.0125 5.87934 10.5859
Pd 20.2377 18.4139 22.5706
Au 23.3559 15.3625 6.8277
Pd 12.2008 10.1646 8.20837
Au 13.9395 24.7834 24.421
Pd 26.3537 15.5304 17.3734
Au 22.9392 13.7548 4.69638
Pd 20.3882 28.0155 13.8459
Au 18.4361 22.1602 25.9748
Pd 10.2695 19.3532 18.1629
Au 11.1851 25.7741 19.5819
Pd 12.4759 22.408 5.71647
Au 20.049 14.288 13.2852
Pd 10.1451 24.0679 17.5397
