665
Atoms. Timestep: 20236
Pd 8.01968 8.53061 7.97388
Pd 5.27826 8.75775 12.2451
Pd 3.33456 9.1434 16.6492
Pd 3.55017 8.452 19.2467
Pd 6.78198 8.77768 22.6104
Au 8.82767 9.78212 5.60031
Au 5.92041 9.7202 9.68102
Pd 6.74865 10.8115 7.22884
Au 3.55963 10.0814 14.1039
Pd 4.11561 11.086 11.524
Au 3.34918 10.9793 18.6472
Pd 3.44877 11.9234 16.1519
Au 4.56121 9.78847 21.4148
Pd 4.61739 12.3384 20.5525
Au 7.89667 10.057 24.7948
Pd 5.73608 11.1412 23.5945
Au 7.51703 12.0343 4.82493
Au 4.7679 12.0602 8.94498
Pd 5.51128 13.0855 6.50819
Au 3.72947 12.8787 13.6269
Pd 4.27197 13.8289 11.1187
Au 3.44494 13.6749 18.2795
Pd 3.70404 14.7336 15.7971
Au 5.80457 13.6625 22.5907
Pd 4.72186 15.0706 20.1642
Au 6.91132 12.3844 25.7078
Pd 7.10644 14.8541 24.6467
Au 8.88824 14.2669 3.56758
Au 4.79889 14.7815 8.60391
Pd 5.5274 15.7711 6.16391
Au 4.03706 15.6955 13.2907
Pd 4.51807 16.6385 10.7955
Au 3.67091 16.4521 17.985
Pd 4.0122 17.5294 15.5129
Au 6.00276 16.3771 22.0923
Pd 4.99627 17.8462 19.9126
Au 8.36142 16.0731 26.6809
Pd 7.42079 17.4928 24.0139
Au 7.48698 16.5835 4.33005
Au 4.94507 17.5446 8.2712
Pd 5.70098 18.3433 5.77767
Au 4.33977 18.4905 13.0018
Pd 4.78827 19.4386 10.484
Au 3.95969 19.2387 17.744
Pd 4.38739 20.2951 15.2721
Au 6.34632 19.1579 21.898
Pd 5.31407 20.5701 19.7304
Au 8.74958 18.6226 26.0074
Pd 7.74273 20.2734 23.9156
Au 7.88426 21.1259 3.39535
Au 5.32063 20.2455 7.98213
Pd 6.57078 18.9096 3.35075
Au 4.69579 21.2227 12.7672
Pd 5.43836 22.0787 10.2907
Au 4.28999 21.9368 17.5247
Pd 5.0146 22.9252 15.0059
Au 6.73866 21.9221 21.8025
Pd 5.59235 23.1817 19.6337
Au 9.16106 21.3229 25.9876
Pd 8.26423 22.9216 23.9506
Pd 10.1519 7.50462 6.4449
Pd 7.24265 7.45003 10.4013
Pd 9.33916 6.25823 8.75405
Pd 5.22341 8.04468 14.8191
Pd 7.26273 7.03188 13.0777
Pd 5.44857 7.66972 17.5068
Pd 7.43855 6.7468 15.8274
Pd 5.74339 7.52035 20.364
Pd 7.65279 6.57278 18.659
Pd 9.02644 7.73589 23.7008
Pd 7.96026 6.51647 21.4788
Pd 11.5783 9.98458 5.29718
Au 12.8526 7.8298 6.15257
Au 10.4853 9.73417 7.77104
Pd 8.4156 10.8411 9.36769
Au 9.67592 8.48339 10.1757
Pd 13.1538 10.3164 7.56173
Au 7.67996 9.7101 11.8207
Pd 5.87208 11.1202 13.5855
Au 7.62925 9.23783 14.5376
Pd 10.1534 10.8242 11.6031
Au 5.60881 10.2826 16.2375
Pd 5.79052 12.2975 18.0868
Au 7.81585 8.98657 17.3327
Pd 8.05514 11.5184 16.0205
Au 5.79351 9.86482 19.0592
Pd 6.9705 11.1713 21.2813
Au 8.08413 8.84798 20.1994
Pd 8.26551 11.2436 18.8709
Au 9.23892 10.1074 22.4786
Pd 10.3154 11.3006 24.7287
Au 11.4484 8.94921 23.7299
Pd 11.7015 11.3743 22.3818
Pd 10.2532 12.0982 4.3748
Au 13.1064 12.0831 4.11969
Au 9.19731 12.0737 6.91857
Pd 7.19276 13.2089 8.55096
Au 10.9527 12.0052 9.13823
Pd 11.9169 12.4015 6.57026
Au 6.49229 12.1263 11.022
Pd 6.18907 14.0074 13.0748
Au 8.26752 12.1345 13.2472
Pd 8.94863 13.2323 10.702
Au 5.81776 13.0691 15.5358
Pd 5.84589 14.9079 17.6412
Au 8.36058 13.6462 17.7347
Pd 8.30186 14.1997 15.0794
Au 7.05371 13.6392 20.16
Pd 8.34219 14.9491 22.2752
Au 9.46769 12.5502 21.1183
Pd 9.61821 14.9926 19.8541
Au 8.15802 12.4927 23.4802
Pd 9.30507 13.6558 25.7653
Au 12.8501 12.5037 24.7282
Pd 10.6641 13.7101 23.4284
Pd 10.263 16.6026 3.86801
Au 11.718 14.2565 3.26035
Au 7.81177 14.3734 6.01286
Pd 7.24516 15.9758 8.1787
Au 9.65114 14.4334 8.20781
Pd 10.584 14.5092 5.65553
Au 6.68485 14.9759 10.6173
Pd 6.51558 16.8555 12.6902
Au 8.69378 15.1424 12.6241
Pd 9.16062 16.1555 10.1871
Au 6.13383 15.8937 15.1552
Pd 6.08858 17.6699 17.3622
Au 8.37486 16.1955 17.0084
Pd 8.71244 17.1028 14.5402
Au 7.17824 16.2683 19.5507
Pd 8.52666 17.5295 21.4378
Au 10.8812 16.1714 22.0713
Pd 9.76435 17.518 18.8652
Au 9.68215 16.0524 24.5028
Pd 10.9193 17.1618 26.7695
Au 11.8605 14.8239 25.7873
Pd 12.1768 17.2435 24.3813
Pd 9.3099 18.9045 2.84501
Au 11.7855 18.8623 4.03634
Au 9.20776 16.745 6.46039
Pd 7.48338 18.6183 7.68738
Au 11.0165 17.0279 8.52462
Pd 10.6536 19.0972 6.64901
Au 6.92308 17.8262 10.1962
Pd 6.7887 19.6506 12.2954
Au 9.01191 18.0536 12.0489
Pd 9.51478 18.9552 9.4615
Au 6.47827 18.6692 14.8397
Pd 6.40731 20.4488 17.1399
Au 8.63547 18.9597 16.7156
Pd 9.11835 19.8538 14.1474
Au 7.48871 19.0308 19.3293
Pd 8.85551 20.299 21.3824
Au 11.0816 18.6773 20.8685
Pd 10.0257 20.302 18.775
Au 9.87412 18.5963 23.4594
Pd 11.2175 19.5838 25.5707
Au 12.7746 19.1353 27.6911
Pd 12.3985 19.6823 23.0295
Pd 6.48966 20.8617 5.64565
Au 10.1947 21.0164 4.6035
Au 8.38429 19.0185 5.20912
Pd 6.78434 22.5209 7.82513
Au 8.79561 20.9407 7.2204
Pd 8.31769 22.8071 5.40324
Au 7.41384 20.5759 9.70606
Pd 6.49667 23.1717 12.5124
Au 8.58211 21.6063 11.9941
Pd 7.89914 23.381 10.0888
Au 6.96989 21.3646 14.521
Pd 6.58104 23.2292 17.1782
Au 8.79483 21.7772 16.6565
Pd 7.69635 23.9429 14.7773
Au 7.78819 21.782 19.271
Pd 9.21346 23.074 21.4965
Au 11.3695 21.4694 20.9843
Pd 8.00283 24.3992 19.5303
Au 10.2793 21.3515 23.5202
Pd 10.6648 23.4476 25.2965
Au 11.5701 21.6252 27.2546
Pd 11.632 23.6226 22.7578
Pd 11.516 5.24554 7.27294
Pd 9.30847 5.96012 11.4721
Pd 11.354 4.85576 9.95707
Pd 9.45988 5.74616 14.2265
Pd 11.502 4.67571 12.7001
Pd 9.64596 5.58609 17.0255
Pd 11.6738 4.5479 15.4767
Pd 9.86317 5.47951 19.8333
Pd 11.8687 4.45763 18.275
Pd 10.1662 5.4821 22.5571
Pd 12.0983 4.42794 21.0315
Pd 14.416 9.98983 5.16735
Au 14.1374 5.68365 7.03784
Au 11.793 7.39088 8.63466
Pd 12.1952 9.6353 10.0648
Au 11.7914 7.09242 11.3864
Pd 14.3859 8.18151 8.45132
Au 9.72038 8.19645 12.9337
Pd 10.1583 10.5067 14.3791
Au 11.9223 6.94204 14.1554
Pd 12.2389 9.42794 12.8275
Au 9.86028 8.00333 15.7132
Pd 10.2943 10.3252 17.1847
Au 12.089 6.82765 16.9421
Pd 12.3544 9.29044 15.6036
Au 10.0591 7.86271 18.5237
Pd 10.5542 10.201 20.0346
Au 12.2902 6.76141 19.7639
Pd 12.5295 9.18503 18.4065
Au 10.3583 7.79774 21.3752
Pd 13.9051 10.2271 23.6279
Au 12.5512 6.61366 22.6579
Pd 12.7747 9.06094 21.3077
Pd 14.7335 14.1486 3.18473
Au 16.0607 12.0266 4.13881
Au 14.7346 12.4031 6.48567
Pd 13.5647 12.808 8.95732
Au 14.7425 10.6294 9.89497
Pd 16.3027 14.4956 5.50998
Au 12.6321 11.9681 11.4324
Pd 10.655 13.2226 12.9782
Au 12.6441 11.7758 14.2364
Pd 15.12 13.1591 11.2901
Au 10.5326 12.7956 15.8373
Pd 10.9098 15.0432 17.4229
Au 12.7768 11.6311 17.0478
Pd 13.0473 14.0866 15.6809
Au 10.7583 12.6295 18.6885
Pd 11.9362 13.8334 20.9831
Au 12.9945 11.5042 19.912
Pd 13.2262 13.9687 18.4903
Au 14.1675 12.6307 22.2778
Pd 14.6866 14.5078 25.5428
Au 15.7042 12.17 24.5399
Pd 15.9583 14.5884 23.1201
Pd 13.242 16.5188 3.51546
Au 16.0917 16.438 3.4661
Au 13.4189 14.5089 5.40759
Pd 12.3506 14.8423 7.85015
Au 15.1123 14.8936 7.90732
Pd 14.8246 16.8332 5.81079
Au 11.4036 14.3369 10.4084
Pd 11.1864 16.2406 12.1999
Au 13.0855 14.3196 12.8278
Pd 13.8264 15.3786 10.3313
Au 10.8154 15.3512 14.6987
Pd 10.9485 17.5095 16.3539
Au 13.4106 16.441 17.0889
Pd 13.3024 16.5464 14.3126
Au 12.1307 16.284 19.5992
Pd 13.3888 17.3734 21.8865
Au 14.4136 15.0791 20.8177
Pd 14.6033 17.5217 19.3901
Au 13.1443 14.9356 23.3334
Pd 13.7139 16.8216 26.6146
Au 16.4915 16.4789 26.428
Pd 14.9519 16.9061 24.1707
Pd 12.8477 21.3293 4.69546
Au 14.5337 18.8965 3.97909
Au 12.0496 16.8646 5.91622
Pd 12.029 19.9149 8.8592
Au 13.6746 17.303 8.27123
Pd 13.316 19.2922 6.39864
Au 12.4082 17.9861 10.6785
Pd 10.7926 19.991 11.6507
Au 13.7215 18.8297 12.8963
Pd 13.3067 20.8158 11.1458
Au 11.2466 18.325 13.8623
Pd 11.1146 20.2837 16.1999
Au 13.5474 18.9472 15.6824
Pd 12.1942 20.913 13.816
Au 12.3112 18.7798 18.2885
Pd 13.5653 19.852 20.4829
Au 15.1141 19.3795 22.7201
Pd 12.5549 21.5476 18.4747
Au 13.9447 19.2252 25.2786
Pd 14.3219 21.3156 27.0512
Au 15.5449 18.8454 27.4186
Pd 15.4624 21.4315 24.5677
Pd 10.9296 23.5594 5.22874
Au 13.6335 23.7112 5.61066
Au 11.4478 21.7973 7.0153
Pd 9.3938 23.5928 7.67776
Au 12.6129 22.7152 9.35017
Pd 11.9339 24.5126 7.56473
Au 10.0105 21.731 9.5535
Pd 9.06523 24.3017 12.4001
Au 11.2197 22.6867 11.8544
Pd 10.4601 24.4488 9.98861
Au 9.88054 22.4454 14.2348
Pd 8.92833 24.4892 17.0489
Au 11.2557 23.0689 16.4512
Pd 10.3368 25.05 14.7906
Au 10.2956 23.0916 18.9709
Pd 10.769 25.1784 20.5387
Au 12.9184 23.6683 20.2135
Pd 11.248 25.4624 17.7702
Au 12.712 21.7688 24.8117
Pd 12.283 25.5125 24.6098
Au 13.0842 23.7686 26.6104
Pd 13.1065 25.7231 22.0157
Pd 13.3456 3.69353 8.56498
Pd 13.5665 3.6283 11.2189
Pd 15.8698 4.05186 9.6865
Pd 13.7352 3.54857 13.9627
Pd 16.0242 3.94258 12.4398
Pd 13.9133 3.47899 16.7462
Pd 16.1786 3.8655 15.2143
Pd 14.1113 3.44721 19.5438
Pd 16.3489 3.80085 17.9946
Pd 14.3352 3.66339 22.2839
Pd 16.5097 3.78582 20.7418
Pd 15.6905 7.7963 6.05087
Au 16.3574 6.3315 8.32036
Au 13.87 5.91853 9.81536
Pd 14.3257 8.26291 11.2661
Au 16.3506 6.31097 11.1004
Pd 16.7215 8.74215 9.78349
Au 14.0075 5.8505 12.6065
Pd 14.4406 8.20602 14.0398
Au 16.4744 6.23706 13.8727
Pd 16.7712 8.70379 12.5493
Au 14.1602 5.77005 15.3878
Pd 14.5886 8.12971 16.8228
Au 16.6238 6.16062 16.6558
Pd 16.8945 8.61926 15.3155
Au 14.3382 5.71524 18.1838
Pd 14.7672 8.09798 19.6394
Au 16.7905 6.10708 19.471
Pd 17.0338 8.53299 18.1093
Au 14.5379 5.77631 20.972
Pd 14.9573 7.92314 22.5732
Au 16.8885 5.97468 22.3446
Pd 17.1594 8.42442 20.9944
Pd 17.634 14.122 3.2862
Au 17.3158 9.82849 5.06136
Au 16.0007 10.212 7.44374
Pd 16.3862 12.7203 8.89682
Au 17.0988 11.1983 11.1969
Pd 17.611 12.3162 6.49692
Au 14.7464 10.6532 12.6769
Pd 15.1621 13.0549 14.0823
Au 17.1829 11.1003 13.9709
Pd 17.4574 13.6302 12.6083
Au 14.8533 10.5639 15.4615
Pd 15.2724 12.9277 16.8775
Au 17.3015 10.9864 16.7621
Pd 17.5766 13.4618 15.4009
Au 15.012 10.4759 18.2729
Pd 15.449 12.7899 19.7319
Au 17.4438 10.8823 19.6054
Pd 17.7084 13.3466 18.2029
Au 15.2106 10.332 21.1942
Pd 17.4883 14.1449 25.3498
Au 16.7254 9.81153 23.4816
Pd 16.969 12.2656 22.0652
Pd 17.2578 18.7694 4.02816
Au 18.9276 16.4401 3.55131
Au 17.6645 16.8392 5.86882
Pd 16.4268 17.2437 8.28202
Au 18.0238 14.8741 7.96809
Pd 18.5545 19.0601 7.30982
Au 16.7626 15.2862 10.339
Pd 15.4581 15.6599 12.6953
Au 17.8892 15.9541 14.0495
Pd 17.5239 17.6912 11.8708
Au 15.5344 15.3984 15.4828
Pd 15.9278 17.7466 16.9237
Au 17.9812 15.8154 16.848
Pd 18.3033 18.3128 15.5293
Au 15.689 15.2579 18.3115
Pd 16.1869 17.0354 21.6773
Au 17.2386 14.7317 20.6227
Pd 17.4989 17.2255 19.2203
Au 17.7425 16.5448 23.9677
Pd 18.3531 18.4891 26.949
Au 19.3279 16.0724 26.1639
Pd 20.6378 16.1035 23.7741
Pd 15.5206 21.3142 4.88533
Au 18.161 20.9206 5.32544
Au 16.0088 19.1741 6.38394
Pd 14.7143 19.706 8.93872
Au 17.2612 19.4691 9.63601
Pd 16.8287 21.3433 7.67889
Au 15.132 17.6532 10.7309
Pd 15.8195 20.0595 11.7662
Au 16.1717 20.2636 15.6015
Pd 17.7122 21.8661 11.1171
Au 15.9276 17.9821 14.1131
Pd 13.6858 21.6963 16.0245
Au 16.2959 19.492 20.1914
Pd 14.8646 21.671 13.6261
Au 14.8147 20.0138 17.9716
Pd 13.8075 21.9291 22.2722
Au 17.9123 19.0987 22.3284
Pd 15.1407 22.0653 19.8389
Au 16.7141 18.9446 24.9319
Pd 17.1149 21.0121 26.6942
Au 21.1045 18.0929 26.4264
Pd 15.8697 23.4642 26.3361
Pd 14.635 24.2695 8.11221
Au 16.3372 23.4772 6.21875
Au 14.1881 21.7357 7.23103
Pd 13.0024 25.3326 10.0472
Au 15.3691 22.2444 9.86683
Pd 16.9203 26.5414 12.2675
Au 13.8292 23.4509 11.7429
Pd 11.6374 25.3036 12.3907
Au 16.3361 23.7916 12.7542
Pd 14.2818 25.732 12.9892
Au 12.6348 23.5675 14.1685
Pd 12.8558 25.8563 15.4807
Au 15.0394 24.201 15.2681
Pd 16.041 26.59 14.8005
Au 13.4992 24.049 17.5076
Pd 13.2269 26.187 19.3475
Au 15.3371 24.1822 21.616
Pd 14.8616 26.4765 17.1548
Au 14.2093 23.8965 24.0958
Pd 14.6376 25.7858 25.9281
Au 18.5769 23.2481 25.9084
Pd 15.3011 26.2486 23.4523
Pd 18.3184 4.59527 8.26527
Pd 18.3501 4.4548 10.9711
Pd 20.6859 5.04938 9.53032
Pd 18.4739 4.36149 13.7189
Pd 20.7835 4.9038 12.2552
Pd 18.6226 4.27797 16.4813
Pd 20.9123 4.80012 15.0052
Pd 18.7725 4.21081 19.2454
Pd 21.036 4.71736 17.7882
Pd 18.8758 4.26845 21.9541
Pd 21.1393 4.73543 20.5491
Pd 18.0444 8.40128 7.39251
Au 17.7545 6.08072 6.05612
Au 18.7261 6.86708 9.61652
Pd 19.1096 9.2471 11.0622
Au 21.1343 7.34256 10.8865
Pd 20.4373 8.86193 8.63982
Au 18.7955 6.76174 12.3818
Pd 19.2064 9.14408 13.8293
Au 21.2325 7.21027 13.6688
Pd 21.5465 9.67102 12.3438
Au 18.9164 6.66714 15.1518
Pd 19.3215 9.04446 16.6046
Au 21.3363 7.10697 16.4579
Pd 21.6382 9.57154 15.1304
Au 19.0532 6.58686 17.944
Pd 19.4226 8.97866 19.418
Au 21.4541 7.06732 19.2715
Pd 21.7348 9.49878 17.9302
Au 19.1539 6.57227 20.7643
Pd 18.7228 7.88096 23.1849
Au 20.7028 6.05135 22.9079
Pd 20.9584 8.46603 21.6596
Pd 18.948 11.9483 4.20921
Au 19.6875 10.4498 6.4222
Au 18.3963 10.8142 8.80034
Pd 18.7774 13.2601 10.2118
Au 20.8073 11.2789 10.0878
Pd 20.0697 12.8646 7.79657
Au 19.4911 11.6399 12.4779
Pd 19.889 13.9625 13.9365
Au 21.9454 12.0037 13.7729
Pd 21.2861 13.5812 11.5464
Au 19.6164 11.5065 15.2726
Pd 20.0058 13.8545 16.74
Au 22.0483 11.9145 16.6149
Pd 22.3487 14.2949 15.2741
Au 19.715 11.4259 18.0728
Pd 19.2318 12.8154 20.4879
Au 21.2373 10.9107 20.3209
Pd 21.5841 13.3196 18.9769
Au 18.9399 10.3384 21.905
Pd 18.4957 11.757 24.2941
Au 20.4722 9.7846 24.0988
Pd 20.7362 12.2498 22.7438
Pd 19.7996 18.5647 5.01409
Au 20.416 14.1188 3.36638
Au 19.2526 14.4679 5.61758
Pd 18.8552 17.2149 9.49469
Au 20.6403 15.1264 9.30749
Pd 20.1263 16.7696 7.1237
Au 19.2869 15.5641 11.6958
Pd 19.8404 17.9295 13.2653
Au 21.7674 15.8599 13.0654
Pd 21.2348 17.4616 10.8918
Au 20.3328 16.2786 15.4154
Pd 17.7509 19.7699 17.8499
Au 19.8677 17.7283 17.7323
Pd 21.1167 18.9594 15.5544
Au 19.5447 15.2704 19.107
Pd 19.072 16.6314 21.5366
Au 21.0798 14.6833 21.3525
Pd 21.5205 17.0341 19.9589
Au 18.7713 14.1808 22.9325
Pd 22.1366 15.5191 25.9073
Au 20.3017 13.6531 25.1795
Pd 21.2693 18.3192 22.335
Pd 18.9582 23.0034 6.79869
Au 20.5912 20.7966 6.51625
Au 20.8711 19.1313 8.69569
Pd 19.0887 22.6412 13.3645
Au 19.4757 19.6144 11.0989
Pd 20.4743 22.3064 11.0621
Au 17.9094 20.1103 13.4027
Pd 17.2354 22.701 15.1384
Au 22.582 18.535 13.1554
Pd 20.7554 20.558 13.3
Au 19.2274 20.921 15.6519
Pd 15.9339 22.4966 17.413
Au 20.5874 20.4812 18.0358
Pd 23.8263 19.6147 15.4566
Au 19.5621 18.913 20.1273
Pd 16.5767 21.6404 22.0539
Au 20.202 20.7308 22.2649
Pd 18.3358 21.2247 20.1289
Au 19.5228 18.6128 24.4364
Pd 19.8233 20.6645 26.2215
Au 21.8599 20.0659 24.5056
Pd 18.2364 21.1848 24.1693
Pd 17.4168 23.7375 8.89013
Au 20.0898 24.107 9.04992
Au 19.2217 21.3879 8.86533
Pd 20.9561 25.737 14.1004
Au 18.1786 26.2164 9.73284
Pd 19.5291 26.7727 12.107
Au 15.6844 25.1308 10.4393
Pd 18.3629 27.7615 14.3158
Au 18.6335 24.3886 11.4072
Pd 19.5089 26.4522 16.2786
Au 18.2802 25.1635 14.17
Pd 17.2632 27.5744 16.915
Au 21.6236 23.0651 17.7672
Pd 19.6834 24.8583 18.4173
Au 15.5428 24.7759 18.9834
Pd 15.4301 26.7482 20.7586
Au 17.7107 23.8153 20.0495
Pd 17.3136 24.9124 16.8457
Au 16.9134 23.6578 23.8201
Pd 17.2532 25.68 25.2984
Au 20.7175 22.5267 24.3535
Pd 17.5535 25.7247 22.1691
Pd 20.0714 6.5084 7.26111
Pd 23.053 5.52487 10.7981
Pd 21.7164 8.50677 6.28701
Pd 23.1966 5.37599 13.5661
Pd 25.9026 8.13464 13.5262
Pd 23.2986 5.2435 16.3324
Pd 25.9718 11.8038 17.3293
Pd 23.4112 5.24993 19.0809
Pd 25.5074 5.86413 14.9467
Pd 22.9669 6.55928 21.5034
Pd 25.179 7.09807 20.0125
Pd 19.3519 8.07171 5.0946
Au 20.9613 10.0954 4.1827
Au 22.4407 6.92766 8.46858
Pd 22.8082 9.3394 9.92103
Au 24.6928 7.43291 9.74869
Pd 24.0386 9.00141 7.57809
Au 23.5907 7.7075 12.2001
Pd 23.9797 10.0628 13.627
Au 27.4459 10.0857 12.5803
Pd 25.2352 9.63294 11.1834
Au 23.6479 7.68176 15.0038
Pd 26.3591 10.4099 14.9867
Au 25.6296 5.80065 17.6251
Pd 25.7082 12.0132 12.7959
Au 23.7518 7.61372 17.7782
Pd 24.0753 9.98878 16.4681
Au 26.0815 8.10121 16.3511
Pd 23.9815 13.7506 17.4802
Au 23.2912 8.98278 20.2031
Pd 22.4624 7.97054 23.8029
Au 24.7441 8.45919 22.4177
Pd 25.5929 9.46329 18.7426
Pd 21.381 12.512 5.39455
Au 23.2688 10.5143 5.39577
Au 22.0921 10.9072 7.69574
Pd 22.634 13.1773 9.16002
Au 24.6645 11.2504 8.92452
Pd 23.8366 12.7631 6.7712
Au 23.3425 11.6224 11.3622
Pd 23.7724 13.9139 12.9046
Au 26.876 11.5433 10.4624
Pd 25.1313 13.5027 10.5171
Au 24.3866 12.3502 15.1457
Pd 21.9302 15.6945 17.6215
Au 27.0209 13.066 15.0414
Pd 25.0389 14.9922 15.2016
Au 23.6497 11.3799 18.8531
Pd 23.1436 12.7623 21.213
Au 25.1573 10.8316 21.156
Pd 25.5452 13.1395 19.6736
Au 22.7498 10.3838 22.5541
Pd 22.2209 11.6767 24.9362
Au 24.182 9.86121 24.6457
Pd 24.5804 12.2398 23.4906
Pd 22.1255 18.5464 6.37668
Au 21.3744 16.2752 4.78794
Au 21.9647 14.6998 6.89957
Pd 22.571 16.9696 8.53155
Au 24.5411 14.9678 8.28898
Pd 23.7879 16.4943 6.22728
Au 23.1918 15.432 10.6838
Pd 26.4617 14.593 12.8296
Au 27.6098 15.713 15.136
Pd 25.8625 16.092 10.6181
Au 23.0742 16.9552 15.3783
Pd 24.6291 16.4112 17.5936
Au 26.6523 14.4596 17.4109
Pd 25.7576 17.6306 15.3012
Au 23.5546 15.0849 19.8131
Pd 23.1172 16.3563 22.144
Au 25.1663 14.4571 22.0166
Pd 26.1614 15.8122 19.7669
Au 22.5683 14.0955 23.5827
Pd 22.875 17.638 24.4724
Au 23.9115 13.5222 25.7453
Pd 24.6025 15.6531 24.3229
Pd 21.8592 21.8805 8.7104
Au 23.5661 19.6919 8.51368
Au 22.1975 20.2149 10.8927
Pd 23.4192 21.1577 13.2018
Au 25.2257 17.5864 8.42302
Pd 24.8342 20.7567 10.8704
Au 23.9509 18.1088 10.7576
Pd 25.2824 19.1523 13.0843
Au 27.1052 17.1905 12.8971
Pd 26.5025 18.6678 10.712
Au 24.6932 22.2336 15.5239
Pd 23.368 21.0018 17.8319
Au 27.2419 17.0954 17.5447
Pd 24.5033 16.5317 12.9773
Au 22.6223 18.4062 17.7858
Pd 20.6409 22.568 20.1622
Au 25.6903 17.1183 22.1193
Pd 24.1301 17.8097 19.9752
Au 22.215 19.9631 20.2348
Pd 22.7261 21.5447 22.4058
Au 23.9008 19.1112 22.3977
Pd 26.7076 18.4116 19.9095
Pd 21.2924 24.9216 11.342
Au 23.1259 22.8641 10.9507
Au 21.6691 23.2451 13.3182
Pd 21.8649 25.7088 17.1738
Au 26.0441 21.6667 13.1996
Pd 22.896 24.1953 15.4217
Au 20.0409 23.7893 15.7332
Pd 24.1316 23.7452 17.7652
Au 26.4677 20.237 15.4609
Pd 24.3082 23.6728 13.1984
Au 25.3708 19.0565 17.7076
Pd 25.9005 21.6413 17.8598
Au 24.9314 20.4236 20.1416
Pd 21.9415 21.6084 15.5395
Au 18.6227 22.4967 17.7605
Pd 17.6913 26.4096 19.2915
Au 21.6566 23.9698 22.2508
Pd 23.3531 22.5779 20.0354
Au 19.861 25.4417 20.9995
Pd 18.9943 23.0981 22.2401
Au 19.5179 24.9913 23.9528
Pd 22.1433 24.8895 19.6889
