665
Atoms. Timestep: 20273
Pd 7.88368 8.3507 8.22736
Pd 5.08828 8.20744 12.1941
Pd 3.28933 8.8715 16.5495
Pd 3.5859 8.57788 19.3516
Pd 6.82226 8.59723 22.8548
Au 8.73555 9.59001 5.922
Au 5.79799 9.42453 9.75099
Pd 6.68197 10.7094 7.41311
Au 3.21115 9.31054 13.8352
Pd 3.9368 10.5341 11.4255
Au 3.53567 10.9396 18.2615
Pd 3.42515 11.4202 15.4502
Au 4.63634 9.65794 21.6966
Pd 4.68634 12.0824 20.5698
Au 7.97474 9.7909 25.096
Pd 5.80507 10.8774 23.9525
Au 7.55154 11.8861 5.05464
Au 4.74328 11.8591 8.97307
Pd 5.62897 13.1131 6.55046
Au 4.01673 12.6845 13.0586
Pd 4.6811 13.9421 10.7365
Au 3.53814 13.3779 17.3517
Pd 3.95436 14.5901 15.0522
Au 5.83054 13.3255 22.8482
Pd 4.72551 14.5581 19.4656
Au 7.00483 12.0766 26.0803
Pd 7.12654 14.5387 25.0134
Au 9.01293 15.0237 3.78701
Au 5.24875 15.0456 8.37907
Pd 6.03596 16.0319 5.99425
Au 4.40871 15.8037 12.7647
Pd 4.92227 16.8838 10.4391
Au 3.6253 16.0722 17.4118
Pd 4.09214 17.3454 15.0646
Au 5.85205 15.7718 21.6322
Pd 4.79804 17.3082 19.5339
Au 8.47775 15.6672 27.0965
Pd 7.06467 16.9517 23.7514
Au 6.53715 14.2417 4.1489
Au 5.39033 17.8213 8.00184
Pd 6.03573 18.6385 5.52727
Au 4.52996 18.6243 12.6906
Pd 5.05672 19.663 10.2842
Au 3.68261 18.7772 17.4181
Pd 4.1227 20.0688 15.0386
Au 5.94087 18.5455 21.7197
Pd 4.81549 20.0025 19.5785
Au 8.22249 18.0286 25.9016
Pd 7.18277 19.7357 23.8141
Au 7.90973 21.5892 3.25856
Au 5.6284 20.494 7.82192
Pd 8.40027 19.4052 4.6468
Au 4.6205 21.3916 12.6205
Pd 5.59109 22.2769 10.1221
Au 3.7766 21.4674 17.4336
Pd 4.22736 22.7177 15.0755
Au 5.98477 21.2307 21.7252
Pd 4.90272 22.6403 19.6054
Au 9.38634 21.298 23.6423
Pd 8.19066 22.7147 21.5247
Pd 9.96407 7.29586 6.76548
Pd 7.1026 7.1292 10.5809
Pd 9.16775 6.04 9.05201
Pd 5.22626 7.89646 14.917
Pd 7.23104 6.87632 13.3175
Pd 5.44789 7.63892 17.6916
Pd 7.43496 6.66844 16.0827
Pd 5.73733 7.48784 20.5138
Pd 7.65986 6.49238 18.8755
Pd 9.05679 7.53162 23.9297
Pd 7.95913 6.40189 21.6532
Pd 11.2929 10.6281 5.72743
Au 12.4792 8.34266 6.4667
Au 10.3793 9.5626 8.09227
Pd 8.26553 10.6673 9.63424
Au 9.5177 8.29036 10.4403
Pd 12.8884 10.6972 7.96832
Au 7.46235 9.37236 12.0021
Pd 5.51413 10.4709 13.6773
Au 7.62851 9.12598 14.8196
Pd 9.94186 10.6177 11.917
Au 5.57981 10.1241 16.4768
Pd 5.94964 12.3196 18.1152
Au 7.83431 8.92691 17.6141
Pd 8.03724 11.4293 16.3457
Au 5.85008 9.8971 19.2968
Pd 7.00007 11.0541 21.5918
Au 8.09076 8.77936 20.435
Pd 8.2854 11.2523 19.1476
Au 9.25614 9.94695 22.749
Pd 10.356 11.0938 25.0153
Au 11.4603 8.78262 23.9776
Pd 11.6717 11.2801 22.6576
Pd 10.1227 12.8367 4.83099
Au 12.9305 12.692 4.67458
Au 9.16478 11.8886 7.26244
Pd 7.10884 13.0817 8.82175
Au 10.7772 11.9123 9.5673
Pd 11.7101 12.9531 7.16104
Au 6.24441 11.7726 11.2206
Pd 6.43848 13.9576 12.874
Au 7.91991 11.687 13.5193
Pd 8.67959 13.004 11.1219
Au 5.79555 12.6692 15.2768
Pd 5.97348 14.7295 17.0158
Au 8.41709 13.6997 17.9082
Pd 8.24197 13.921 15.0609
Au 7.07681 13.5103 20.4005
Pd 8.29493 14.7342 22.5751
Au 9.46646 12.4544 21.4198
Pd 9.59293 14.9333 20.1441
Au 8.18777 12.2761 23.8119
Pd 9.36783 13.386 26.0751
Au 12.7763 12.4565 25.016
Pd 10.6328 13.6056 23.7167
Pd 10.1529 17.445 3.52625
Au 11.7704 14.992 3.7663
Au 8.0465 14.2256 6.34744
Pd 7.74084 16.2741 8.15164
Au 9.56487 14.2827 8.71439
Pd 10.5723 15.1418 6.20076
Au 7.0951 15.2254 10.5252
Pd 6.87991 17.2118 12.4057
Au 8.88651 15.2678 12.6674
Pd 9.6046 16.5534 10.2823
Au 6.42267 15.9542 14.6951
Pd 6.02816 17.4386 17.0542
Au 8.49113 16.1102 16.6493
Pd 8.96671 17.4105 14.3289
Au 7.15091 15.9406 19.1552
Pd 8.29886 17.1584 21.2962
Au 10.7961 16.139 22.3726
Pd 9.6217 17.3435 18.8019
Au 9.54323 15.9073 24.7654
Pd 10.6927 17.2304 26.9218
Au 11.7204 14.8345 26.0692
Pd 11.9816 17.443 24.6535
Pd 9.64863 19.8048 2.40777
Au 12.0191 19.4611 3.54853
Au 7.20279 17.0257 3.64068
Pd 7.89395 18.944 7.41439
Au 10.5059 17.369 7.79297
Pd 10.663 19.4172 6.0355
Au 7.30522 18.2081 9.9974
Pd 6.92367 20.1025 12.2018
Au 9.29516 18.6813 11.9841
Pd 9.80055 19.3191 9.39213
Au 6.491 18.7371 14.6566
Pd 6.05474 20.1531 17.0803
Au 8.51117 18.8487 16.7238
Pd 8.86563 20.1898 14.3164
Au 7.21076 18.6997 19.2407
Pd 8.38563 19.9738 21.4024
Au 10.7194 18.5555 20.9718
Pd 9.69498 20.1845 18.927
Au 9.41873 18.3379 23.4697
Pd 10.357 19.6114 25.613
Au 12.743 19.2594 26.7661
Pd 11.6241 19.8114 23.1724
Pd 6.68077 21.2371 5.54122
Au 10.2955 21.5334 4.34441
Au 8.68987 16.9905 5.74688
Pd 6.96907 22.8402 7.69236
Au 8.98738 21.2818 6.97845
Pd 8.43879 23.2407 5.26291
Au 7.67933 20.893 9.56242
Pd 6.83888 22.9489 12.387
Au 9.15913 21.6389 11.8871
Pd 8.12652 23.5162 9.97073
Au 6.45822 21.4614 14.668
Pd 8.68622 22.9383 14.4283
Au 8.40568 21.5776 16.7817
Pd 11.0372 21.7906 14.0277
Au 7.19408 21.4074 19.2963
Pd 7.1252 24.087 19.3665
Au 10.665 21.5892 21.1864
Pd 6.4356 24.154 14.8125
Au 11.2645 23.2836 23.3836
Pd 10.1408 24.5206 21.1751
Au 12.223 21.5494 25.2759
Pd 9.43894 22.8846 19.0371
Pd 11.2166 5.01075 7.58542
Pd 9.25437 5.82782 11.7691
Pd 11.3012 4.76706 10.259
Pd 9.4534 5.66122 14.514
Pd 11.4899 4.62095 12.9851
Pd 9.66506 5.50317 17.2769
Pd 11.6975 4.49062 15.7341
Pd 9.88784 5.36811 20.0383
Pd 11.9144 4.37585 18.4984
Pd 10.1743 5.33103 22.7346
Pd 12.1453 4.31232 21.2315
Pd 14.1267 10.4166 5.52573
Au 13.6579 6.0468 7.25782
Au 11.6171 7.21366 8.89605
Pd 12.0111 9.53856 10.3692
Au 11.7053 7.04526 11.6792
Pd 14.0707 8.41022 8.74731
Au 9.66033 8.10722 13.2256
Pd 10.1027 10.4488 14.7151
Au 11.8983 6.9096 14.4401
Pd 12.1467 9.4073 13.1506
Au 9.86216 7.93821 16.004
Pd 10.2991 10.2846 17.4948
Au 12.1035 6.77952 17.2102
Pd 12.3349 9.27655 15.9142
Au 10.0749 7.78507 18.7882
Pd 10.5386 10.139 20.2978
Au 12.315 6.67349 20.0093
Pd 12.5337 9.14364 18.6937
Au 10.3566 7.67818 21.6
Pd 13.8515 10.1483 23.8774
Au 12.5535 6.48492 22.8705
Pd 12.7445 8.98093 21.5493
Pd 14.5897 14.7711 3.82945
Au 15.7954 12.4636 4.5685
Au 14.5286 12.7332 6.99034
Pd 13.28 13.1243 9.46584
Au 14.4865 10.8065 10.2399
Pd 16.133 14.8274 6.13142
Au 12.4142 11.9087 11.823
Pd 10.3442 12.9573 13.388
Au 12.5664 11.781 14.6098
Pd 14.8926 13.2749 11.7133
Au 10.4957 12.7784 16.2014
Pd 10.917 15.1342 17.6729
Au 12.7637 11.6454 17.3875
Pd 12.9794 14.1522 16.0657
Au 10.7397 12.6491 18.9886
Pd 11.8928 13.8244 21.2961
Au 12.9441 11.4896 20.2079
Pd 13.1702 14.0346 18.8287
Au 14.0726 12.636 22.5865
Pd 14.5575 14.3701 25.8594
Au 15.602 12.0132 24.8284
Pd 15.8463 14.4985 23.4863
Pd 13.3266 17.0854 3.05883
Au 16.1427 16.8615 3.06243
Au 13.3151 15.0094 6.19767
Pd 12.0489 15.3757 8.68779
Au 14.8737 15.2015 8.56561
Pd 14.8257 17.1461 5.37327
Au 11.1209 14.3038 11.0527
Pd 11.2946 16.6385 12.5353
Au 12.8171 14.2928 13.2828
Pd 13.5768 15.6007 10.9994
Au 10.6817 15.2494 14.8705
Pd 10.9836 17.5501 16.262
Au 13.3778 16.5913 17.4465
Pd 13.1308 16.5947 14.6954
Au 12.0649 16.34 19.9287
Pd 13.2344 17.6131 22.255
Au 14.2961 15.1966 21.1885
Pd 14.4739 17.763 19.8047
Au 13.0285 15.0207 23.6709
Pd 13.5308 16.7238 26.8251
Au 16.3474 16.1877 26.8197
Pd 14.8569 16.8626 24.5581
Pd 12.9828 21.8874 4.40919
Au 14.7735 19.3105 3.45918
Au 12.0563 17.2808 5.3819
Pd 12.2165 19.8783 8.36929
Au 13.5034 17.5005 7.77745
Pd 13.4762 19.6414 5.85019
Au 12.1418 17.8342 10.1991
Pd 11.463 20.2378 11.406
Au 13.7133 18.1087 12.5272
Pd 13.9578 20.2235 10.5166
Au 11.3395 18.9729 13.9222
Pd 10.9221 20.305 16.4032
Au 13.4862 19.0751 15.6742
Pd 15.6139 21.983 14.297
Au 12.0015 18.7532 18.446
Pd 12.9253 20.0703 20.593
Au 15.1635 19.6301 21.9629
Pd 12.0638 21.8488 18.625
Au 13.9834 19.441 24.4369
Pd 14.7857 21.295 26.2329
Au 15.5028 18.7322 26.679
Pd 15.9417 21.528 23.827
Pd 11.0969 23.9567 5.22884
Au 13.7936 24.2016 5.48039
Au 11.6216 21.9603 6.79661
Pd 9.56284 23.8698 7.56062
Au 13.0165 22.4366 9.25624
Pd 12.2027 24.4703 7.65954
Au 10.3313 21.9922 9.36036
Pd 9.28725 24.3237 12.1869
Au 11.7061 22.9701 11.6561
Pd 10.6469 24.6614 9.8635
Au 13.4024 20.7727 13.3182
Pd 8.29826 24.3049 16.8325
Au 10.7 23.0434 16.526
Pd 10.7072 24.6011 14.3638
Au 11.4542 24.5315 18.7793
Pd 6.01843 22.8983 17.1508
Au 12.6033 23.5017 20.991
Pd 10.504 25.8565 16.6015
Au 13.435 21.7053 22.7937
Pd 13.2502 25.22 22.9945
Au 14.171 23.494 24.7692
Pd 12.4472 26.2277 20.6737
Pd 13.359 3.85161 8.7415
Pd 13.5491 3.66432 11.4347
Pd 15.8014 4.15803 9.9204
Pd 13.7534 3.54058 14.1859
Pd 15.9998 4.01035 12.6572
Pd 13.9639 3.43845 16.9559
Pd 16.2004 3.89965 15.4205
Pd 14.1804 3.37297 19.731
Pd 16.4039 3.80737 18.1864
Pd 14.398 3.52949 22.4415
Pd 16.5882 3.77374 20.9211
Pd 15.3292 8.09125 6.31079
Au 16.0214 6.49054 8.5044
Au 13.7777 6.01865 10.103
Pd 14.2064 8.34872 11.5768
Au 16.2419 6.41884 11.3327
Pd 16.4682 8.87714 10.0306
Au 13.9621 5.8766 12.8721
Pd 14.3909 8.23756 14.3368
Au 16.4324 6.30558 14.1081
Pd 16.6678 8.80063 12.8183
Au 14.1605 5.76086 15.6383
Pd 14.5833 8.12768 17.0997
Au 16.6288 6.1998 16.8809
Pd 16.8576 8.69293 15.5792
Au 14.3683 5.67262 18.4176
Pd 14.7723 8.05066 19.8906
Au 16.8257 6.11855 19.679
Pd 17.0321 8.57952 18.3538
Au 14.5782 5.68788 21.1938
Pd 14.9276 7.84411 22.7756
Au 16.9503 5.9748 22.5224
Pd 17.1607 8.44013 21.2128
Pd 17.4233 14.579 3.77816
Au 16.9655 10.1102 5.32679
Au 15.7265 10.4266 7.76936
Pd 16.1501 12.8914 9.27842
Au 16.8975 11.3055 11.4913
Pd 17.3851 12.5118 6.84866
Au 14.6322 10.724 13.0268
Pd 15.0562 13.1531 14.4725
Au 17.0972 11.2028 14.2739
Pd 17.3065 13.7102 12.9364
Au 14.8168 10.6084 15.7918
Pd 15.2271 13.0094 17.2339
Au 17.2722 11.0774 17.053
Pd 17.5114 13.5755 15.7262
Au 14.9941 10.4861 18.5769
Pd 15.3506 12.8292 20.0617
Au 17.4049 10.9353 19.8778
Pd 17.6349 13.4379 18.5359
Au 15.1443 10.301 21.4538
Pd 17.3607 13.8557 25.7391
Au 16.6718 9.67035 23.7147
Pd 16.8717 12.1654 22.3771
Pd 17.5273 19.0585 3.43902
Au 19.0043 16.7069 3.22712
Au 17.6819 16.9691 5.46127
Pd 16.4012 17.3398 7.82024
Au 17.8461 14.9964 8.32925
Pd 18.3471 19.2284 7.45479
Au 16.5855 15.352 10.7467
Pd 15.289 15.7522 13.1343
Au 17.76 16.041 14.3684
Pd 17.206 17.7094 12.1674
Au 15.451 15.5307 15.8874
Pd 15.8705 17.9229 17.366
Au 17.9077 15.9216 17.2103
Pd 18.3256 18.2949 15.8499
Au 15.5875 15.3816 18.7087
Pd 16.0798 17.02 22.1317
Au 17.1034 14.6809 21.0082
Pd 17.4239 17.2069 19.6638
Au 17.6406 16.3099 24.4731
Pd 18.2664 18.2281 26.4115
Au 19.1653 15.6572 26.6793
Pd 20.4606 15.754 24.2792
Pd 15.6827 21.6486 4.54311
Au 18.3378 21.1479 4.93528
Au 16.2863 19.3486 5.73895
Pd 15.0117 19.7505 8.10463
Au 16.9906 19.6949 9.86292
Pd 16.9918 21.5325 7.17971
Au 15.1335 17.6994 10.2116
Pd 15.7789 19.9565 12.3633
Au 16.4519 20.4296 16.4064
Pd 17.399 21.9649 11.5631
Au 15.8056 18.1646 14.5554
Pd 13.1756 21.8297 15.9008
Au 16.2326 19.8108 19.4913
Pd 15.2165 24.7115 15.1207
Au 14.1615 20.2356 17.9541
Pd 14.666 22.0769 19.9422
Au 17.8556 19.0649 21.6807
Pd 15.1472 22.8206 17.4023
Au 16.7282 18.9063 24.2397
Pd 17.4785 20.822 26.0247
Au 20.9925 17.657 26.1516
Pd 16.7872 23.4282 25.4869
Pd 14.8665 24.4389 8.02219
Au 16.4532 23.8009 5.92261
Au 14.3463 22.0569 6.86408
Pd 13.3361 24.8881 10.2135
Au 15.7634 22.2246 9.4257
Pd 17.5044 26.5761 12.2817
Au 14.6164 22.8391 11.7605
Pd 11.7533 25.6082 12.1741
Au 16.7935 24.2006 13.0915
Pd 14.5092 25.6708 12.575
Au 13.1371 23.6481 13.8641
Pd 12.7409 26.3115 14.5422
Au 15.9462 27.2066 14.2877
Pd 14.33 27.0725 16.3968
Au 12.9981 24.5798 16.5799
Pd 9.18166 25.7048 18.9621
Au 14.114 24.8 19.1374
Pd 12.3688 26.9092 18.1076
Au 15.1965 23.6461 22.128
Pd 16.0395 25.4339 23.8327
Au 19.3878 22.7967 25.2803
Pd 15.2167 26.192 21.2835
Pd 18.0197 4.76651 8.39205
Pd 18.2479 4.56277 11.1358
Pd 20.4342 5.15659 9.59942
Pd 18.444 4.44873 13.895
Pd 20.6795 4.99624 12.3734
Pd 18.643 4.34913 16.651
Pd 20.8792 4.90416 15.1422
Pd 18.8344 4.269 19.3905
Pd 21.0743 4.83586 17.8952
Pd 18.9699 4.31405 22.0818
Pd 21.2163 4.84029 20.6301
Pd 17.7282 8.5677 7.60942
Au 17.3689 6.29832 6.2276
Au 18.4715 6.99311 9.76878
Pd 18.9055 9.33736 11.2493
Au 20.9176 7.40485 10.9867
Pd 20.1901 8.96536 8.78665
Au 18.6888 6.86221 12.5707
Pd 19.1195 9.24929 14.052
Au 21.1395 7.30717 13.812
Pd 21.3518 9.74308 12.4558
Au 18.882 6.76319 15.3473
Pd 19.2996 9.15805 16.8224
Au 21.3283 7.2423 16.5919
Pd 21.5902 9.69197 15.2867
Au 19.0698 6.67323 18.1221
Pd 19.4268 9.08148 19.6205
Au 21.481 7.20675 19.3852
Pd 21.7159 9.68163 18.0879
Au 19.2035 6.63878 20.9197
Pd 18.7824 7.85297 23.3764
Au 20.8065 6.07393 23.0205
Pd 21.0071 8.51274 21.8271
Pd 18.6185 12.2011 4.4725
Au 19.3753 10.5786 6.64021
Au 18.1559 10.939 9.06856
Pd 18.6016 13.3419 10.5091
Au 20.6357 11.3373 10.2519
Pd 19.8627 12.9561 8.08482
Au 19.3404 11.7093 12.6897
Pd 19.791 14.0065 14.1307
Au 21.8435 12.0332 13.8728
Pd 21.1418 13.6328 11.6822
Au 19.566 11.6242 15.5214
Pd 19.9481 14.0103 17.0136
Au 21.9975 12.1189 16.7949
Pd 22.3947 14.2783 15.2075
Au 19.688 11.5691 18.3304
Pd 19.1722 12.8192 20.8356
Au 21.2282 10.9943 20.5725
Pd 21.5232 13.4456 19.3301
Au 18.9362 10.3157 22.1569
Pd 18.4167 11.5129 24.5916
Au 20.5467 9.70533 24.331
Pd 20.723 12.1835 23.0901
Pd 19.6399 18.7941 5.10276
Au 20.25 14.2752 3.61164
Au 19.0982 14.6053 5.93861
Pd 18.4769 17.374 9.74599
Au 20.3926 15.2807 9.55507
Pd 19.803 16.9462 7.35561
Au 19.1067 15.6688 11.9623
Pd 19.6747 17.993 13.4697
Au 21.6818 15.9132 13.1265
Pd 20.9787 17.5813 11.069
Au 20.3513 16.2648 15.4931
Pd 18.4323 19.3561 18.2649
Au 20.2232 17.3121 17.9094
Pd 21.1104 18.9448 15.7869
Au 19.4615 15.2731 19.5351
Pd 18.9152 16.4527 22.0072
Au 21.0144 14.644 21.8468
Pd 21.9707 16.3945 20.006
Au 18.6349 13.9704 23.3313
Pd 21.8726 15.1252 26.4476
Au 20.1676 13.2906 25.5793
Pd 21.6705 17.4521 22.5152
Pd 19.0608 23.1608 6.56198
Au 20.3846 20.9229 6.77135
Au 20.5505 19.2784 8.98004
Pd 18.856 22.6682 13.7204
Au 19.1648 19.7302 11.4279
Pd 20.2313 22.3022 11.3391
Au 17.8719 20.1507 13.9347
Pd 17.4068 23.0603 15.9833
Au 22.4525 18.5731 13.372
Pd 20.6162 20.6289 13.6948
Au 19.269 21.0618 16.2094
Pd 17.6624 22.0358 18.4909
Au 20.9934 20.0476 18.3049
Pd 23.801 19.6026 15.7265
Au 20.0728 18.325 20.3984
Pd 16.9925 21.7139 21.246
Au 20.9972 20.1183 22.5147
Pd 19.3853 20.9878 20.4039
Au 19.4929 18.3203 23.9457
Pd 20.1716 20.2293 25.6446
Au 22.5369 19.2139 24.5271
Pd 18.572 20.9081 23.5165
Pd 17.5209 24.0456 8.47142
Au 22.995 22.868 11.2282
Au 18.8716 21.6447 9.09113
Pd 20.8215 26.4224 15.3372
Au 20.1933 24.0036 8.87048
Pd 18.5633 24.3595 10.9719
Au 16.0134 24.9364 10.4984
Pd 19.615 25.2853 13.3045
Au 17.9225 25.587 15.3958
Pd 19.2681 27.1229 17.3108
Au 18.6219 27.8397 14.5201
Pd 16.8463 27.8498 16.7497
Au 20.5439 22.7125 18.2713
Pd 19.9176 26.2466 19.8225
Au 16.1275 25.3991 17.4868
Pd 14.8556 27.3823 18.9518
Au 16.6487 24.2293 19.915
Pd 18.6458 24.6425 17.9761
Au 17.8112 23.4987 22.9877
Pd 18.8037 25.3328 24.4355
Au 22.0377 21.8537 24.515
Pd 17.8945 25.8859 21.8043
Pd 19.7467 6.65939 7.37133
Pd 22.8569 5.56055 10.8256
Pd 21.3797 8.61972 6.37758
Pd 23.1034 5.44768 13.627
Pd 25.2109 5.99243 12.0746
Pd 23.3053 5.40113 16.3761
Pd 26.307 11.5755 16.948
Pd 23.4653 5.43317 19.1047
Pd 25.4889 5.98263 14.8746
Pd 23.0488 6.6512 21.5605
Pd 25.2324 7.29267 20.0071
Pd 18.9496 8.26842 5.2586
Au 20.5664 10.2548 4.33124
Au 22.1803 7.00615 8.53377
Pd 22.6221 9.35219 10.0049
Au 24.5385 7.43453 9.78662
Pd 23.7551 9.01809 7.59216
Au 23.365 7.83088 12.2217
Pd 23.8646 10.0945 13.6016
Au 25.1793 9.66966 11.146
Pd 24.3763 11.2164 8.98913
Au 23.6175 7.80244 15.0494
Pd 26.3624 10.4095 14.6117
Au 25.6258 6.04203 17.5787
Pd 25.7218 11.9588 12.5129
Au 23.7436 7.83552 17.832
Pd 24.0181 10.2276 16.5282
Au 25.855 8.16307 13.3965
Pd 24.328 13.4781 17.2739
Au 23.3088 9.12 20.318
Pd 22.5714 7.94194 23.921
Au 24.8168 8.51906 22.4713
Pd 25.9707 8.36831 16.3127
Pd 21.067 12.5683 5.64384
Au 22.9656 10.5983 5.446
Au 21.868 10.9641 7.81713
Pd 22.4711 13.2411 9.24163
Au 23.6571 12.8504 6.75811
Pd 22.7417 14.4413 4.77325
Au 23.186 11.6437 11.416
Pd 23.7241 13.9159 12.8417
Au 25.9153 13.1154 8.05632
Pd 24.9893 13.5204 10.4666
Au 24.4541 12.3336 14.9093
Pd 22.2648 15.3661 17.5886
Au 27.088 13.0314 14.7238
Pd 25.1186 14.9603 15.0902
Au 23.5957 11.5843 19.0715
Pd 23.096 12.8592 21.6024
Au 25.6134 9.72963 18.8215
Pd 26.0654 12.6608 19.3332
Au 22.7893 10.39 22.7592
Pd 22.3313 11.545 25.1938
Au 24.3201 9.77042 24.7655
Pd 25.1117 10.9936 21.3327
Pd 21.8672 18.6951 6.61428
Au 21.0702 16.5114 4.97339
Au 21.6719 14.8591 7.15394
Pd 22.3107 17.1209 8.68813
Au 24.3099 15.1334 8.3007
Pd 23.5057 16.626 6.27398
Au 23.0203 15.4899 10.7358
Pd 26.3801 14.6211 12.6749
Au 27.6731 15.6964 14.9444
Pd 25.6921 16.1478 10.5631
Au 23.1403 16.9121 15.4387
Pd 24.9237 16.15 17.5491
Au 26.9576 14.2442 17.1509
Pd 25.8108 17.6216 15.3535
Au 24.0485 14.5244 19.6718
Pd 23.6076 15.6039 22.0829
Au 25.7329 13.7525 21.7543
Pd 26.6172 15.346 19.5944
Au 22.5856 13.984 24.1272
Pd 23.1523 16.629 24.6133
Au 24.6507 12.2219 23.7873
Pd 25.1352 14.8976 24.0872
Pd 21.6713 21.8547 9.01342
Au 23.3229 19.7791 8.75189
Au 21.9635 20.2444 11.2213
Pd 23.2832 21.1923 13.5445
Au 24.9843 17.7408 8.48721
Pd 24.6207 20.7749 11.1174
Au 23.735 18.1534 10.9089
Pd 25.15 19.1718 13.2529
Au 26.9971 17.2328 12.848
Pd 26.2786 18.7364 10.7696
Au 26.3811 20.2781 15.6319
Pd 23.5215 20.7008 18.2838
Au 27.4782 16.9062 17.4314
Pd 24.4207 16.5526 12.997
Au 22.9316 18.0556 17.9171
Pd 21.9312 21.7609 20.4346
Au 26.2074 16.4091 22.0416
Pd 24.5772 17.2293 20.0214
Au 22.7149 19.1479 20.5074
Pd 23.6314 20.8976 22.4465
Au 24.3557 18.258 22.6089
Pd 27.0777 17.9661 19.9068
Pd 21.2112 24.8177 11.1949
Au 22.407 25.7326 13.3402
Au 21.5316 23.2431 13.5398
Pd 21.3355 25.3282 17.7335
Au 24.235 23.7544 13.4645
Pd 24.556 22.2565 15.8104
Au 20.1181 23.8456 15.7991
Pd 23.2172 23.288 18.0349
Au 25.893 21.6976 13.4312
Pd 22.7883 24.39 15.6508
Au 25.6124 18.8771 17.8438
Pd 25.8916 21.5645 18.0726
Au 25.3034 19.9583 20.3736
Pd 21.948 21.696 16.0307
Au 19.2072 23.7302 20.4774
Pd 17.4002 26.8479 19.3393
Au 22.9158 23.5115 22.4512
Pd 24.4108 22.4974 20.2857
Au 20.5225 25.4143 22.29
Pd 20.3789 22.7287 22.6059
Au 21.3608 24.4125 24.5344
Pd 21.9024 24.3845 20.1659
