665
Atoms. Timestep: 20622
Pd 14.4796 9.89647 10.7442
Pd 12.6895 17.2122 21.8611
Pd 25.2259 14.4509 8.53064
Pd 12.3155 2.57072 19.6468
Pd 15.3959 13.2457 23.2487
Au 17.8743 14.7196 5.13409
Au 17.9502 12.2426 6.22713
Pd 9.22868 6.31374 22.2654
Au 8.48598 15.6342 8.3769
Pd 12.0073 18.8323 5.92878
Au 15.2847 3.52474 10.7743
Pd 10.1978 4.46211 12.9631
Au 1.68381 12.024 15.2415
Pd 14.8405 13.1058 19.5732
Au 20.0554 24.775 9.14831
Pd 7.70097 8.82054 12.5616
Au 10.4885 2.29075 17.5397
Au 19.8866 7.43159 22.4738
Pd 11.7872 6.38685 11.7944
Au 21.4269 19.6989 26.1613
Pd 8.67904 6.7529 16.7733
Au 6.68567 19.4204 6.95505
Pd 22.5037 9.38608 10.2653
Au 15.6081 12.2938 27.7017
Pd 6.60641 20.3382 21.832
Au 16.9876 21.3405 26.3376
Pd 14.9718 17.6987 20.4177
Au 8.38843 13.4367 10.5618
Au 6.09184 19.5904 12.9738
Pd 15.0491 4.42747 15.991
Au 18.9963 5.17759 18.5881
Pd 21.9782 4.70355 15.1975
Au 20.2369 26.0536 11.6061
Pd 6.12076 9.50431 10.4923
Au 19.1864 18.1091 25.8695
Pd 16.6096 21.8787 23.7002
Au 19.5882 14.3023 22.2533
Pd 11.9317 16.9505 24.6748
Au 8.31381 10.435 6.66328
Au 6.0211 17.0614 8.21902
Pd 16.5279 5.99173 18.7049
Au 20.1122 8.39648 4.38612
Pd 4.09986 13.6964 10.8949
Au 15.4297 25.487 9.22918
Pd 15.7203 26.1186 11.9751
Au 5.22941 8.56859 19.1797
Pd 15.2827 19.1012 12.164
Au 17.2392 14.0215 26.145
Pd 10.2342 8.84571 15.6617
Au 18.3567 19.3194 5.06608
Au 22.4097 17.1385 4.91295
Pd 6.55034 6.32552 18.3668
Au 14.8851 17.4573 2.30649
Pd 9.10577 6.4262 11.6024
Au 5.16442 7.80486 16.5838
Pd 11.9413 21.9077 22.0265
Au 2.2372 13.0183 12.8033
Pd 11.5399 21.8342 14.2023
Au 3.83756 16.7934 15.1785
Pd 15.5403 23.3917 19.4058
Pd 17.8926 4.12133 9.55923
Pd 18.2692 10.4572 4.11168
Pd 13.0795 2.82679 17.0912
Pd 13.8118 25.8419 18.8508
Pd 16.0345 6.43777 21.2087
Pd 11.8622 5.09765 19.3628
Pd 17.6229 10.6186 15.8196
Pd 20.5538 22.7272 20.0091
Pd 16.8632 23.7358 10.6506
Pd 11.1274 12.3999 23.4672
Pd 16.9788 19.2205 24.6092
Pd 9.44143 8.5486 20.727
Au 9.95359 23.4792 12.7569
Au 19.7083 22.9945 14.267
Pd 18.489 7.75407 12.0701
Au 13.2168 15.5425 3.12543
Pd 8.47965 21.2817 13.2936
Au 7.85383 8.66339 22.9683
Pd 4.12491 15.3215 17.6009
Au 5.41239 9.86516 13.6231
Pd 6.20635 14.6202 9.33904
Au 10.9812 22.207 16.9759
Pd 18.6853 10.0209 18.8265
Au 11.5954 16.8348 18.9522
Pd 13.0409 24.764 8.35918
Au 11.1161 7.48391 17.9104
Pd 17.7658 19.2556 13.3106
Au 14.8857 6.58699 23.7466
Pd 10.3669 15.1585 10.0368
Au 10.3539 19.9808 4.09697
Pd 7.05394 25.1904 17.8939
Au 6.64875 11.0991 23.2515
Pd 7.59771 19.0213 23.9818
Pd 15.521 20.8944 14.1816
Au 20.8247 21.9846 9.5733
Au 22.6898 15.2836 15.5175
Pd 10.1461 20.0098 15.3429
Au 12.7283 3.75481 12.0071
Pd 7.31775 23.8121 12.8294
Au 9.28678 26.1098 19.1538
Pd 10.5176 8.49941 23.4178
Au 4.67212 12.6073 13.5833
Pd 18.786 13.5946 13.4399
Au 16.1521 24.4794 24.6554
Pd 21.0141 15.8149 20.4592
Au 9.17097 6.12186 19.4963
Pd 18.2454 11.4817 26.8734
Au 4.1371 8.33095 11.8827
Pd 11.9532 22.0743 24.737
Au 18.3878 16.0702 27.5784
Pd 14.2382 18.3276 23.9746
Au 11.0939 10.3689 17.6956
Pd 15.2952 22.5942 8.23919
Au 7.90581 4.13452 17.7578
Pd 19.7504 20.2976 19.371
Pd 22.3169 22.1973 14.969
Au 15.2177 24.6553 6.59884
Au 19.6518 12.7926 4.00875
Pd 11.3811 14.4592 7.66684
Au 22.8683 7.41756 18.6461
Pd 6.19716 16.8163 13.0304
Au 14.1503 17.1878 26.4558
Pd 21.3076 15.3705 6.73543
Au 6.28159 21.737 11.4992
Pd 12.0633 16.1107 5.47544
Au 11.6805 26.2721 20.4025
Pd 12.3858 14.7991 16.9563
Au 18.964 22.6748 22.393
Pd 8.97441 17.9781 16.3144
Au 11.2551 27.0391 14.9524
Pd 17.5293 18.7383 20.2357
Au 14.3054 10.2287 26.454
Pd 11.6031 11.7007 20.0841
Au 10.7859 18.8222 20.6586
Pd 12.1327 14.3041 19.8057
Au 7.42203 12.632 21.1362
Pd 24.292 22.6903 20.1057
Pd 8.46545 6.78844 14.1491
Au 10.3989 21.6386 19.8041
Au 12.8537 23.2874 6.1949
Pd 12.8706 10.5261 8.74429
Au 8.82465 25.3743 11.2041
Pd 19.3304 9.77891 6.50701
Au 6.91784 11.5819 12.0731
Pd 13.4161 8.37317 12.7956
Au 14.9669 8.94829 8.05543
Pd 3.83913 15.2968 12.9797
Au 16.7447 7.0497 7.17105
Pd 17.0273 3.41217 17.605
Au 6.79773 10.0543 20.6888
Pd 11.4957 10.7778 13.3865
Au 2.84498 12.7118 17.6315
Pd 24.4526 17.2725 14.5265
Au 19.8865 13.5805 27.0852
Pd 21.424 18.24 18.8135
Au 16.8966 18.4691 27.3197
Pd 11.1807 21.6474 11.0274
Au 6.868 24.7953 15.2728
Pd 7.7137 21.6351 23.8672
Pd 19.1475 12.3473 11.2283
Au 22.4221 23.3572 8.08167
Au 6.94561 21.0795 8.98052
Pd 10.3255 13.0711 18.0911
Au 4.7184 16.4286 10.6723
Pd 17.8625 22.8246 17.8321
Au 13.6656 2.59958 14.3492
Pd 24.5843 12.0657 15.954
Au 12.8857 21.2136 18.9518
Pd 22.4781 23.078 17.9376
Au 17.479 21.6104 20.3652
Pd 9.70415 3.53784 19.7128
Au 20.4718 20.0545 14.1888
Pd 12.7938 10.5283 15.6083
Au 22.4658 10.3674 15.24
Pd 8.55506 12.9603 23.6255
Au 14.8374 8.02533 5.39767
Pd 5.35863 13.1045 16.9043
Au 10.3168 15.1943 26.8071
Pd 22.9328 15.7997 8.72085
Au 24.0702 17.7987 7.1923
Pd 19.426 20.9059 24.7454
Pd 20.4484 11.8337 22.7859
Pd 20.8733 6.19344 13.4038
Pd 16.5738 9.93441 6.16375
Pd 15.6229 14.7266 14.499
Pd 17.5715 11.665 22.754
Pd 7.32027 12.3902 18.4916
Pd 19.3538 12.2589 20.3098
Pd 23.9421 18.8618 18.7042
Pd 5.81467 12.0867 9.59145
Pd 17.1127 13.6651 21.0496
Pd 15.1424 15.1688 9.7102
Pd 16.2101 14.2317 7.42797
Au 7.48191 16.7698 10.6941
Au 23.6472 11.09 6.23431
Pd 13.5781 9.15044 17.7283
Au 22.6652 6.83923 8.87503
Pd 14.2906 17.5075 4.98325
Au 11.3397 3.45264 15.1584
Pd 17.6145 19.2052 10.4228
Au 12.7331 21.0669 4.42066
Pd 21.1666 8.97476 20.3143
Au 13.9025 6.3603 7.33901
Pd 13.8154 12.8924 8.03086
Au 25.0891 11.5368 21.2508
Pd 11.8774 15.8822 12.056
Au 3.96494 10.841 15.8196
Pd 15.0554 7.06835 16.8094
Au 6.13915 13.8679 23.7522
Pd 22.1225 12.8289 16.7541
Au 6.47095 21.6994 19.318
Pd 12.6128 16.6813 9.41614
Au 7.31497 8.81583 15.4371
Pd 18.2438 5.49351 13.7767
Pd 21.6383 10.5471 7.77208
Au 13.6522 20.7405 6.99532
Au 8.1067 10.9749 9.26896
Pd 10.5644 12.2377 15.5393
Au 15.8385 14.9918 2.42024
Pd 8.97179 8.60875 10.2441
Au 13.0041 4.90851 9.56259
Pd 13.8502 13.8086 12.571
Au 5.77252 7.06179 13.6064
Pd 10.0669 12.6903 25.9113
Au 8.40497 18.3614 13.461
Pd 12.8387 5.56185 16.8521
Au 5.8089 14.2916 19.5217
Pd 6.56937 6.93008 10.9789
Au 9.43548 10.7951 22.155
Pd 4.85549 12.6335 21.6954
Au 19.3965 6.96958 6.65925
Pd 8.03082 17.9268 21.5315
Au 16.1864 7.93501 10.398
Pd 8.98413 17.4057 18.9732
Au 26.9473 17.2886 15.8566
Pd 11.2592 24.5341 18.2375
Pd 19.9323 9.49275 16.2182
Au 18.1182 16.1551 13.9924
Au 21.8766 17.6919 13.5956
Pd 10.1715 17.7621 10.7964
Au 13.6328 10.5922 6.156
Pd 15.7229 17.4575 14.1982
Au 19.9708 26.3897 14.2276
Pd 11.6053 9.17369 10.7932
Au 11.1151 4.36514 21.8307
Pd 20.9798 20.7478 21.8473
Au 17.4849 23.6996 5.33196
Pd 25.0997 9.53604 10.959
Au 4.9541 15.3358 21.9009
Pd 6.04993 10.2927 17.36
Au 22.1408 7.73143 15.7954
Pd 10.1871 16.1208 21.1291
Au 5.08616 20.5912 17.3043
Pd 12.5463 23.7041 12.5292
Au 18.5198 25.175 23.4319
Pd 3.87048 16.7443 19.9314
Au 18.478 19.963 22.4531
Pd 16.1304 11.5091 8.28985
Pd 6.88341 15.8078 17.3362
Au 11.133 26.1276 12.4142
Au 17.9349 26.1126 10.3202
Pd 8.50473 13.2967 13.6227
Au 6.39729 14.3402 12.1407
Pd 25.1458 19.3597 16.4047
Au 13.1154 12.2212 17.7244
Pd 6.70355 11.7527 15.0787
Au 10.4533 4.56656 10.2678
Pd 12.9469 13.5937 5.58835
Au 26.4287 10.091 16.0484
Pd 23.4379 21.8681 10.3367
Au 16.2757 17.7563 18.0985
Pd 17.6066 20.113 17.8372
Au 10.4527 8.3379 13.0509
Pd 8.35359 19.9221 19.8704
Au 22.6021 25.9824 17.7004
Pd 12.3779 18.2726 3.34809
Au 11.9091 17.6191 16.3051
Pd 19.674 9.74241 10.6836
Au 26.5244 18.3241 11.4031
Pd 8.54704 14.7159 19.2781
Pd 24.0636 17.7154 11.843
Au 15.1578 22.2257 5.32422
Au 2.61591 10.3848 13.3997
Pd 17.8599 8.12435 14.6605
Au 8.92329 10.4843 24.7371
Pd 16.8921 17.0334 4.1894
Au 4.47351 17.9418 17.5537
Pd 15.5049 21.7411 17.0016
Au 9.34738 25.5331 16.5761
Pd 14.0049 23.2545 10.4248
Au 3.27591 14.0471 19.9387
Pd 9.96485 13.4567 21.2535
Au 8.238 21.6804 6.70784
Pd 24.0269 23.0389 12.8721
Au 7.30862 4.88355 12.8655
Pd 25.5466 15.3453 11.2439
Au 18.4771 26.7215 21.1867
Pd 7.2511 20.149 15.442
Au 7.20534 8.50554 8.28215
Pd 8.61026 20.9729 17.4821
Au 9.86023 22.9291 23.3315
Pd 9.00809 25.6766 13.9599
Pd 23.6195 11.5359 11.7314
Pd 15.5754 6.7451 14.1062
Pd 10.8377 6.19403 14.9713
Pd 23.4686 15.2742 12.9501
Pd 14.2951 15.6945 24.0153
Pd 16.2918 11.5422 25.1227
Pd 14.395 6.03603 11.7103
Pd 17.549 6.73581 23.5422
Pd 18.531 10.4352 13.1877
Pd 25.6695 20.5008 19.6242
Pd 19.996 18.1946 21.0991
Pd 13.9995 18.1886 7.58836
Au 18.2066 18.6547 7.77782
Au 5.89137 22.0985 14.3065
Pd 11.5715 17.4292 27.2374
Au 26.0307 15.8272 20.1586
Pd 20.2252 7.74198 18.1335
Au 4.73339 11.6168 19.2608
Pd 24.0288 13.8947 20.4209
Au 12.7857 9.05423 4.19406
Pd 11.9176 9.10581 19.8892
Au 24.2365 11.3543 9.04764
Pd 14.0091 15.843 18.8523
Au 10.7128 12.4014 9.43726
Pd 14.9999 10.5399 22.7191
Au 23.486 16.3825 19.5325
Pd 13.9701 8.18367 21.7275
Au 21.8994 8.30094 6.35007
Pd 16.6135 16.6265 25.4157
Au 10.5325 9.71507 5.42554
Pd 8.77698 23.3933 18.5127
Au 9.46245 12.3241 5.02567
Pd 8.64741 10.8447 16.7953
Pd 22.1742 24.1971 10.6964
Au 9.23816 17.3737 25.6876
Au 8.59914 22.7792 10.4718
Pd 12.282 8.39347 7.02563
Au 17.1078 10.6811 10.747
Pd 21.6886 10.3007 18.1028
Au 21.6353 22.1035 12.4041
Pd 19.0673 20.2213 27.3212
Au 20.7657 11.08 25.4208
Pd 7.06604 7.30479 20.7841
Au 20.5309 5.41426 8.92323
Pd 17.4753 16.4118 9.24187
Au 16.5091 12.1349 13.149
Pd 12.0107 11.5954 4.13136
Au 7.15537 16.4635 23.9793
Pd 10.1271 24.1218 20.803
Au 25.2885 18.2988 21.0681
Pd 10.7441 17.3521 13.977
Au 12.1506 6.35027 23.6119
Pd 27.5552 13.9413 12.4828
Au 18.4202 7.58232 20.1408
Pd 26.8638 15.3249 17.6756
Pd 14.0714 20.8937 23.7639
Au 24.0532 24.0236 15.7293
Au 9.82674 20.1971 24.9641
Pd 14.0938 10.5546 20.0776
Au 23.3899 19.69 5.60301
Pd 9.38192 19.2801 6.45823
Au 20.8387 23.2406 24.0985
Pd 16.3053 26.4698 22.7579
Au 7.9748 8.67972 18.4411
Pd 13.2474 18.796 14.1093
Au 21.54 13.6367 24.8612
Pd 18.4229 23.2738 25.2542
Au 17.4841 3.06975 14.8918
Pd 20.081 19.4312 16.8044
Au 20.0919 16.9955 15.7502
Pd 22.6422 18.1969 9.52906
Au 9.87748 15.6177 17.0929
Pd 9.90601 23.4311 8.02178
Au 16.4037 23.9736 21.9727
Pd 10.3729 9.82997 8.35709
Au 13.5302 28.1657 15.5998
Pd 18.9758 17.3266 18.3655
Pd 10.8888 13.3647 12.3085
Au 18.1646 21.7089 9.2904
Au 21.9822 21.9228 5.83459
Pd 13.1856 5.37506 14.0968
Au 3.52685 8.22746 14.5886
Pd 16.9336 5.64725 11.5542
Au 11.0529 14.1484 3.8088
Pd 15.1687 15.002 4.97898
Au 24.0279 9.35218 19.9667
Pd 13.4796 25.6249 16.2745
Au 14.4447 4.35754 18.8664
Pd 6.45047 16.8399 19.777
Au 14.0681 25.6171 21.6309
Pd 11.5294 6.96049 21.177
Au 15.833 19.7349 22.0959
Pd 15.9314 21.3165 10.9342
Au 10.7496 19.6981 12.7053
Pd 13.5916 25.7356 13.7081
Au 23.5016 6.20532 13.6234
Pd 20.2411 26.9506 16.8386
Au 26.4915 18.0174 18.5536
Pd 9.92838 17.8293 23.2135
Pd 17.7834 18.3052 15.8093
Au 8.39155 18.4235 8.76449
Au 22.7029 20.5152 8.08599
Pd 19.9483 14.3621 16.0281
Au 26.9 12.755 17.0308
Pd 12.2063 22.2425 8.65576
Au 27.1856 12.1966 14.5132
Pd 14.6444 21.9816 21.3468
Au 21.3613 24.6045 15.8328
Pd 24.0945 9.41807 17.2065
Au 8.9191 10.6409 14.0679
Pd 10.816 19.4638 18.0087
Au 5.19193 19.2714 19.8452
Pd 22.6021 20.5232 16.9748
Au 3.1847 14.1273 15.3368
Pd 8.01097 14.6219 25.6677
Au 13.3684 12.6177 21.7655
Pd 5.86232 14.7829 14.9016
Au 9.42515 7.77792 7.03746
Pd 8.41856 6.21882 9.0624
Au 25.3217 17.0568 9.34737
Pd 10.9356 21.4165 6.4166
Pd 13.4697 7.58415 9.75397
Pd 11.3005 11.8799 6.85243
Pd 15.9861 20.0024 8.44005
Pd 10.3688 4.82081 17.2751
Pd 17.3436 5.68518 16.1795
Pd 15.115 14.0807 17.0758
Pd 12.211 10.2 22.362
Pd 13.2998 19.6775 21.0708
Pd 21.3285 13.5717 11.9838
Pd 18.4053 6.76708 9.46031
Pd 12.7742 14.1134 10.1288
Pd 19.078 11.5984 8.6478
Au 17.5412 24.2231 8.03914
Au 8.70963 4.19881 15.1921
Pd 20.1543 11.8545 14.8848
Au 9.99416 17.3773 4.51415
Pd 13.8882 15.558 7.33726
Au 18.4432 15.1116 2.61961
Pd 22.9486 8.80768 12.9516
Au 24.7909 13.5959 22.9862
Pd 21.3654 18.2161 7.1115
Au 26.6942 16.3864 13.3471
Pd 24.2977 14.2066 17.7679
Au 20.4949 12.7465 6.65137
Pd 19.5661 5.07533 11.3797
Au 5.82535 18.9417 10.3144
Pd 16.1301 4.38213 22.7557
Au 19.5719 3.937 16.2476
Pd 9.81743 15.2525 23.8519
Au 23.9814 9.54903 22.597
Pd 9.16762 10.9347 19.5269
Au 13.6602 5.23524 21.605
Pd 16.8414 8.8153 22.1352
Pd 16.7002 11.0409 20.4015
Au 22.4627 13.3499 4.97948
Au 22.9136 13.2274 7.74841
Pd 22.2088 5.11337 11.2865
Au 13.5031 11.8106 24.5072
Pd 25.9269 12.7819 10.4823
Au 17.799 3.14224 12.1308
Pd 11.4905 10.3705 25.3749
Au 25.1322 21.6244 14.827
Pd 14.66 13.9016 25.8677
Au 23.455 18.3154 23.8419
Pd 15.4338 1.82518 16.1585
Au 12.9465 15.0779 27.6107
Pd 11.3579 24.3718 15.1028
Au 12.1332 14.2746 25.1436
Pd 22.6605 12.8708 14.1279
Au 11.7733 24.6916 22.7505
Pd 12.1076 14.7951 22.5289
Au 12.8632 7.86925 15.3387
Pd 20.5822 26.6219 19.5764
Au 13.7517 6.97187 19.2959
Pd 8.77874 13.0239 7.62854
Pd 8.21806 13.6264 16.311
Au 4.40287 19.4924 15.022
Au 22.1427 19.6612 11.6359
Pd 19.2426 16.9304 5.95391
Au 17.3471 14.8687 23.5132
Pd 23.3127 19.7923 14.2883
Au 19.524 21.9318 4.69879
Pd 22.2096 13.8807 22.2247
Au 27.9271 14.7323 15.1576
Pd 23.8603 11.788 18.68
Au 25.1434 13.2131 13.0771
Pd 13.8823 23.0474 14.989
Au 15.2851 23.5423 12.8173
Pd 21.5154 5.39334 17.6512
Au 15.576 4.10889 13.3598
Pd 14.8601 19.8053 26.2048
Au 14.4583 2.78686 21.2174
Pd 23.8771 7.17528 11.145
Au 14.6796 15.1369 21.3755
Pd 22.586 18.3814 21.2809
Au 18.525 5.24221 21.4701
Pd 8.11877 22.4934 21.2159
Pd 6.51083 5.6031 15.7025
Au 11.1219 24.3129 10.2369
Au 20.111 16.7497 8.99932
Pd 13.7374 20.3952 9.82306
Au 21.2089 10.9172 12.5949
Pd 18.8083 14.7188 7.59432
Au 13.146 15.9369 14.3765
Pd 20.7072 14.1331 9.3161
Au 10.9696 6.97776 9.11641
Pd 21.5391 15.6878 17.8127
Au 17.5554 13.2369 15.7389
Pd 15.2901 19.2487 16.1863
Au 23.9679 20.578 21.8951
Pd 20.464 8.32748 8.61977
Au 15.9085 8.59931 19.496
Pd 8.3614 19.8508 11.0817
Au 26.3973 13.208 19.5352
Pd 23.9046 8.97784 8.04199
Au 18.0671 26.4834 18.2546
Pd 24.6197 16.7106 17.1435
Au 12.7446 18.4746 11.4067
Pd 18.5403 24.8786 16.0119
Pd 22.4796 20.836 19.6369
Au 13.3036 25.9413 10.8799
Au 18.2967 24.3236 20.0837
Pd 17.4857 21.4762 6.69318
Au 3.89028 18.0643 12.7098
Pd 20.2417 19.3602 9.51911
Au 13.0393 28.0704 12.9042
Pd 14.5576 16.6374 16.4255
Au 9.45443 14.96 5.78404
Pd 16.56 14.5113 11.9877
Au 15.5676 27.34 17.1211
Pd 17.0788 21.2972 3.79735
Au 17.1424 18.9255 2.44039
Pd 23.4367 13.8752 10.4657
Au 16.756 3.68996 20.2314
Pd 10.7078 14.7378 14.6298
Au 20.2141 22.063 16.9015
Pd 17.2543 12.7547 18.3667
Au 4.07272 11.0639 11.3445
Pd 21.7568 16.1807 11.1262
Au 13.4949 21.1433 12.4622
Pd 24.8025 19.6332 9.67797
Pd 15.2915 9.24552 15.3446
Pd 20.1387 24.5277 18.1678
Pd 24.7348 8.14183 14.9567
Pd 15.7584 10.6678 17.8173
Pd 12.9509 13.1881 14.8944
Pd 19.13 9.88226 21.5555
Pd 15.3805 20.2756 19.2816
Pd 20.848 18.8635 23.6836
Pd 22.3475 11.2952 20.9817
Pd 20.8706 6.18265 20.2561
Pd 23.0031 11.7092 23.675
Pd 15.2217 10.4293 3.90348
Au 24.7167 24.5144 18.263
Au 15.549 28.0936 13.9244
Pd 7.86199 17.1079 6.19316
Au 16.0825 8.87404 24.7242
Pd 19.3658 20.2275 2.69973
Au 20.6249 15.2632 4.15918
Pd 22.4872 18.0048 16.3005
Au 26.1817 10.626 18.6607
Pd 14.4599 16.3934 12.0199
Au 12.9637 20.5372 16.1845
Pd 21.0022 7.41403 11.0866
Au 21.3045 10.7429 4.91448
Pd 15.2064 17.8415 9.83414
Au 19.5715 15.4716 25.1479
Pd 20.6953 15.4066 13.6288
Au 13.3464 8.75032 24.3473
Pd 16.1584 26.0323 20.0017
Au 15.0244 1.83771 18.7906
Pd 16.7121 23.1864 15.1475
Au 21.7559 17.0825 25.705
Pd 20.4323 8.68268 13.7653
Pd 16.5352 15.3259 19.0904
Au 14.1383 10.9955 13.251
Au 24.8708 21.8954 17.4988
Pd 6.32898 17.6633 15.4996
Au 17.797 27.4819 15.5705
Pd 10.5656 17.0438 7.50462
Au 20.9894 19.4682 4.65063
Pd 17.0559 17.0641 11.7755
Au 19.1653 14.6153 18.7566
Pd 12.5716 11.6796 11.1663
Au 23.9765 15.2743 6.2161
Pd 8.27376 15.8904 14.8254
Au 23.5125 15.3805 24.597
Pd 13.5216 18.6091 18.258
Au 21.419 16.3336 23.089
Pd 18.2049 16.1898 20.901
Au 12.678 12.3643 27.0503
Pd 9.60556 10.9852 11.499
Au 8.86977 22.9717 15.3702
Pd 20.5038 24.8728 21.7156
Au 26.2329 19.1508 13.9287
Pd 9.13891 15.6304 12.3858
Pd 19.4682 17.5645 3.30913
Au 15.1054 12.5564 10.5703
Au 15.1881 11.9437 15.5598
Pd 25.3452 14.7177 15.2862
Au 22.4169 21.0361 24.0915
Pd 18.1125 20.987 15.4033
Au 19.7151 17.8758 11.9123
Pd 19.11 15.256 11.2308
Au 17.5387 8.20048 17.2894
Pd 14.0032 23.5491 23.3917
Au 14.1885 12.9486 3.26454
Pd 17.4851 13.5876 9.6521
Au 22.7274 7.45903 21.6717
Pd 20.032 20.5621 7.10385
Au 16.2129 17.1201 22.6278
Pd 16.1371 9.12067 12.8167
Au 22.554 24.7762 20.0325
Pd 9.45805 20.4316 22.2983
Au 14.6513 22.4935 25.768
Pd 21.5614 11.8106 9.98377
Au 6.57873 22.7364 16.8567
Pd 15.7308 15.4528 27.8398
Pd 17.777 9.20388 8.56429
Au 11.5774 27.0744 17.6507
Au 13.5228 23.3559 17.5781
Pd 15.3838 12.4346 5.6876
Au 17.5696 7.93714 4.7808
Pd 19.7767 6.58418 15.8173
Au 26.9061 11.1282 12.1482
Pd 19.4742 20.6868 11.6949
Au 18.6832 9.75443 24.291
Pd 21.4062 9.44711 23.1853
Au 12.2979 19.5356 25.8487
Pd 15.8498 19.461 5.82072
Au 24.0841 16.1225 22.1599
Pd 12.8202 23.6875 20.2803
Au 15.6657 5.56856 9.12454
Pd 18.9156 12.7955 24.6311
Au 17.9235 24.8387 13.1223
Pd 17.4287 15.7455 16.5923
Au 17.7045 13.6251 28.6543
Pd 7.70625 15.1887 21.8008
Au 5.48143 17.904 22.2055
Pd 15.953 25.6802 14.8165
Pd 24.7665 20.4853 12.1967
Au 11.6366 19.2021 8.70991
Au 17.9433 27.4667 12.7887
Pd 11.8502 19.523 23.2801
Au 23.9443 6.06003 16.4825
Pd 16.3483 16.8781 6.84216
Au 21.6091 13.3471 19.3477
Pd 18.7333 17.2828 23.3383
Au 20.0845 3.57575 13.5979
Pd 22.4488 22.9081 21.9962
Au 14.7893 19.831 3.42953
Pd 16.9227 12.7527 3.52264
Au 9.66486 20.8926 8.84291
Pd 19.4845 23.4702 11.4278
Au 24.9493 10.4778 13.7765
Pd 16.0284 24.7668 17.3019
Au 19.8267 23.231 7.02378
Pd 17.581 22.0286 12.8603
Au 21.9284 24.6802 13.2829
Pd 6.82109 14.6427 6.68333
Au 19.6712 12.0738 17.5176
Pd 6.97469 18.7928 17.8876
