665
Atoms. Timestep: 20434
Pd 3.99615 14.2027 9.08178
Pd 3.66678 12.6341 13.7694
Pd 3.74599 16.6668 9.96615
Pd 7.09823 9.10832 18.1784
Pd 13.3393 5.7401 17.9461
Au 5.31784 11.9005 8.86756
Au 11.1414 7.68319 7.5875
Pd 6.80294 7.59888 9.37726
Au 8.785 8.158 14.209
Pd 10.356 10.1682 15.1914
Au 5.66613 5.68298 16.2726
Pd 7.10922 17.8186 19.655
Au 3.53 15.1006 15.1683
Pd 5.29883 15.8868 19.5191
Au 5.88256 20.8526 19.1053
Pd 5.87995 12.4159 23.5897
Au 4.30446 16.142 7.15943
Au 5.43591 9.74159 10.5397
Pd 5.13507 18.472 8.52114
Au 5.39651 6.95864 18.6141
Pd 12.1789 10.3225 17.1594
Au 3.38115 15.9994 17.7573
Pd 10.4758 19.804 19.1821
Au 10.4838 19.726 21.9537
Pd 8.04672 12.9837 17.448
Au 9.39731 19.4306 24.6903
Pd 13.0952 20.8211 22.2934
Au 8.86914 18.5967 5.64598
Au 6.20616 15.9423 8.88068
Pd 7.26906 18.2731 10.0941
Au 3.7642 12.0239 11.0626
Pd 9.55338 6.74286 12.0481
Au 6.52215 22.2165 16.8539
Pd 3.89107 9.74473 12.743
Au 5.52483 16.9944 21.9492
Pd 9.4063 22.2238 21.3407
Au 20.5608 14.9163 26.6386
Pd 15.4852 21.7942 23.333
Au 8.27785 16.4 4.30918
Au 8.32865 20.6017 11.2707
Pd 6.96496 18.7589 12.7293
Au 3.57583 16.9872 13.036
Pd 9.3302 19.8285 13.8317
Au 3.59022 17.7393 15.8431
Pd 8.63924 24.1614 17.1274
Au 9.57163 10.6159 24.1462
Pd 7.9558 20.7487 22.9993
Au 5.79903 19.592 21.4796
Pd 13.5631 15.3839 19.6241
Au 7.16368 23.0468 10.9718
Au 7.7614 19.5684 17.6209
Pd 10.3067 16.1701 6.17389
Au 4.9871 21.9524 14.7611
Pd 7.60652 22.1761 13.7753
Au 7.44391 26.4821 16.64
Pd 12.6364 24.6869 20.4771
Au 4.54398 18.4386 19.1199
Pd 11.4935 21.6073 17.5973
Au 11.1278 17.7766 26.2003
Pd 15.0732 25.2077 19.6596
Pd 11.2204 7.95543 10.4038
Pd 9.76229 13.1852 10.9456
Pd 16.0144 7.96229 12.2479
Pd 7.90282 8.66638 11.4619
Pd 6.36037 9.15108 13.5577
Pd 6.51208 13.5199 19.5488
Pd 16.1824 5.15543 6.59117
Pd 4.94743 19.8315 16.7852
Pd 11.1975 8.35789 21.3005
Pd 15.1269 3.41694 15.0415
Pd 9.45859 10.7833 17.7554
Pd 7.64535 13.4845 8.78416
Au 11.8693 11.7933 6.90255
Au 7.58539 11.3704 10.5279
Pd 8.45586 10.7841 13.2039
Au 10.0543 10.356 11.0673
Pd 16.9379 14.4625 10.4556
Au 7.84437 13.4558 12.8105
Pd 7.57822 10.4158 15.7976
Au 3.44724 10.9648 18.8076
Pd 10.9588 11.8418 13.1369
Au 5.75078 11.4859 17.7309
Pd 7.53146 11.0926 19.7843
Au 11.6077 3.69104 13.2343
Pd 5.85771 11.6202 12.6636
Au 11.1157 12.7354 25.5596
Pd 15.1405 5.8236 16.0993
Au 6.72446 15.1071 23.6714
Pd 9.68426 17.4421 20.6235
Au 7.25286 7.73186 20.6013
Pd 7.64761 15.5274 21.0141
Au 15.3509 21.0796 18.4102
Pd 10.771 6.03255 22.4932
Pd 5.67593 13.7114 6.93901
Au 7.85952 15.2469 6.78453
Au 5.92686 13.781 10.8669
Pd 5.81068 16.4844 11.6156
Au 9.18261 12.6151 15.1402
Pd 9.91823 13.5535 6.49876
Au 4.67238 10.4752 15.1795
Pd 9.56008 17.5547 17.9407
Au 7.39093 5.67879 11.1363
Pd 8.91308 17.2851 8.22086
Au 3.84614 13.5676 19.1539
Pd 8.20553 19.9762 20.4566
Au 14.2723 16.9527 14.874
Pd 9.26238 13.373 19.9364
Au 7.57988 15.0602 15.4559
Pd 6.24827 12.6435 15.1858
Au 11.9999 8.11281 18.6051
Pd 13.8191 12.5431 26.4498
Au 14.9824 9.99024 26.4286
Pd 17.2512 17.8423 21.471
Au 17.1268 2.68877 18.6123
Pd 11.878 10.5 22.6368
Pd 10.9423 17.3077 3.87747
Au 13.2358 15.5172 3.27336
Au 8.20955 15.5695 10.5958
Pd 3.49978 14.6202 11.7876
Au 12.0256 12.8871 9.4446
Pd 10.0846 14.8772 8.76817
Au 5.34379 7.41499 11.7862
Pd 5.83699 17.1175 14.5259
Au 4.44294 19.4124 13.9365
Pd 8.09407 16.3085 13.1362
Au 10.1466 15.0004 16.2411
Pd 6.0652 17.2742 17.1585
Au 13.2493 19.4401 16.9774
Pd 11.3161 21.6126 14.6695
Au 8.20238 24.5328 21.1042
Pd 5.10736 11.7635 20.9586
Au 5.52408 14.6257 13.5288
Pd 12.1346 17.662 19.1505
Au 6.98756 10.1926 22.2747
Pd 12.7171 6.2801 20.4254
Au 5.08642 14.2967 21.7423
Pd 18.5372 16.3314 25.6432
Pd 7.72463 19.7167 7.775
Au 12.9007 21.0755 5.69605
Au 6.55588 17.577 6.47858
Pd 10.2676 21.098 7.10397
Au 9.95658 19.4888 9.31119
Pd 11.7822 17.2209 8.27507
Au 4.65487 18.8844 11.1868
Pd 5.67919 21.1331 12.2704
Au 10.5105 19.4038 16.2836
Pd 12.3869 20.0507 8.38041
Au 4.47393 7.63991 14.6158
Pd 6.77123 22.2436 21.1217
Au 11.8668 17.061 16.4065
Pd 9.5343 10.8087 21.4201
Au 11.5585 15.8075 21.4448
Pd 10.653 17.3546 23.4835
Au 14.8401 24.1664 24.5349
Pd 13.6483 21.3513 13.357
Au 7.93895 18.0564 22.5368
Pd 11.1986 8.30526 24.124
Au 14.1387 17.1948 27.2928
Pd 12.0761 19.4313 24.2004
Pd 10.8121 26.7304 10.5677
Au 9.50932 24.3159 10.3129
Au 6.84665 24.4093 15.1469
Pd 6.89568 19.9372 15.0753
Au 8.51891 22.0364 8.91592
Pd 12.0545 24.6727 9.56041
Au 6.12 20.755 9.65304
Pd 14.9906 23.0589 6.02885
Au 9.66683 23.842 14.6921
Pd 9.75851 22.5689 12.3133
Au 12.854 23.8265 14.3874
Pd 11.8876 26.1526 15.0051
Au 9.01322 21.5973 16.0892
Pd 10.7493 25.1296 12.6818
Au 10.627 24.4576 22.1401
Pd 14.0979 25.8087 22.4509
Au 9.30285 15.1686 23.0047
Pd 9.17069 26.4435 14.6968
Au 13.8698 14.4837 22.0573
Pd 13.146 21.8387 24.8771
Au 10.2619 24.1006 19.2513
Pd 6.72965 23.8265 18.9721
Pd 9.56959 11.7212 8.58246
Pd 9.13839 8.95984 8.95997
Pd 6.82638 6.33918 13.6908
Pd 11.1548 8.69416 13.0215
Pd 6.73855 7.91915 15.9585
Pd 13.8046 12.7416 18.7366
Pd 10.6253 6.15767 14.3851
Pd 8.37723 5.63113 15.7646
Pd 17.0832 5.60242 11.7359
Pd 12.6999 2.40655 15.4003
Pd 4.50022 8.96206 17.2565
Pd 7.94898 13.7219 4.58574
Au 7.8188 11.8923 6.47026
Au 17.6963 9.21148 5.32378
Pd 13.5755 8.24247 8.98579
Au 15.5815 7.545 5.59028
Pd 13.0745 9.31541 6.48279
Au 6.98401 10.0384 8.13042
Pd 13.5165 8.50818 11.6755
Au 15.6838 3.49095 10.8302
Pd 13.0687 3.95069 10.9142
Au 10.3751 4.5049 10.9525
Pd 7.88922 6.43039 18.205
Au 11.9105 3.45217 17.8146
Pd 14.7215 5.09794 13.0392
Au 9.31387 4.11558 18.2682
Pd 10.797 5.95562 17.2358
Au 15.1124 5.98907 24.0137
Pd 13.8657 7.35482 14.1082
Au 8.93817 8.34185 22.5917
Pd 19.9936 19.6157 24.1618
Au 9.91182 6.31563 19.9207
Pd 17.4931 4.35144 20.7526
Pd 10.1998 11.9664 4.47975
Au 5.84764 15.4732 4.99923
Au 17.0851 14.1831 7.78747
Pd 16.6635 11.7592 9.41301
Au 12.6491 10.9963 11.3268
Pd 14.4201 12.0068 6.3145
Au 14.0285 12.4815 13.614
Pd 8.36875 17.7019 15.5274
Au 18.2311 7.01997 7.06558
Pd 12.3198 13.89 12.0015
Au 17.0041 7.20377 17.3637
Pd 14.0272 11.7823 21.2909
Au 12.7903 5.02692 15.3076
Pd 15.9281 5.07279 18.6492
Au 9.41993 8.20625 16.8625
Pd 11.9378 14.8719 23.9587
Au 3.58163 12.6457 16.5368
Pd 15.7 14.8011 18.0881
Au 8.44557 13.1175 24.6666
Pd 10.5353 12.8265 22.8756
Au 7.76618 12.8957 22.018
Pd 13.2787 7.35561 22.7547
Pd 12.8643 16.5937 5.65642
Au 15.9771 15.3663 3.28183
Au 10.327 14.695 3.73464
Pd 9.52939 18.1675 11.6399
Au 19.3027 15.061 9.14312
Pd 19.3373 14.6283 6.34671
Au 10.7892 15.946 11.1002
Pd 10.1573 14.5316 13.4571
Au 11.9687 12.5213 15.4826
Pd 12.8977 16.7167 12.5457
Au 5.51065 14.4907 17.0887
Pd 15.1945 14.1475 15.4742
Au 11.6866 10.7215 19.7495
Pd 13.0435 10.049 14.1839
Au 7.96729 15.5212 18.2823
Pd 15.4817 19.978 21.3225
Au 5.19725 9.32732 20.0094
Pd 17.5226 18.4575 24.0379
Au 16.0743 19.2089 26.5018
Pd 10.7874 15.3565 18.8841
Au 10.0241 15.212 25.7631
Pd 13.6449 9.18928 20.8808
Pd 12.3956 14.6948 7.48862
Au 18.6387 16.1936 4.17189
Au 12.1667 13.0096 2.61869
Pd 13.1959 15.4775 10.0076
Au 14.7429 16.3932 7.98395
Pd 14.638 13.6447 8.40233
Au 14.8393 18.7706 9.35329
Pd 11.0574 22.0208 9.73468
Au 10.5502 17.1491 13.9855
Pd 14.0215 18.6904 6.73809
Au 11.0427 12.8472 17.9489
Pd 14.3452 16.9861 17.5302
Au 12.9879 14.6342 17.087
Pd 16.911 23.3165 10.9384
Au 17.6096 19.5825 19.522
Pd 13.2418 17.0914 24.7126
Au 17.853 20.7286 22.3746
Pd 11.3941 24.0548 16.6788
Au 11.8615 13.2587 20.6138
Pd 13.1045 27.343 20.5327
Au 15.4405 21.8385 26.0358
Pd 13.2238 28.2549 13.6737
Pd 15.1954 17.5057 4.57327
Au 17.6502 18.6031 4.76135
Au 11.3439 18.8462 6.16317
Pd 15.4673 20.3053 5.18278
Au 13.0933 18.9423 4.10826
Pd 16.4728 21.0097 9.65343
Au 12.5311 22.8576 7.57475
Pd 15.3848 25.3849 10.3825
Au 14.1627 25.0784 7.77876
Pd 12.2872 23.1429 11.7893
Au 11.282 20.3679 12.005
Pd 10.7538 27.7546 13.017
Au 11.0402 28.4962 15.6335
Pd 13.102 25.9488 11.9345
Au 18.8792 28.2139 16.5695
Pd 8.66671 21.9586 18.7649
Au 10.6134 26.5903 20.1024
Pd 8.23211 26.0687 19.0563
Au 11.0451 20.7399 26.2146
Pd 12.8221 18.1798 21.8202
Au 13.5301 23.3384 18.2401
Pd 17.3232 28.4011 19.1792
Pd 11.6435 10.0605 8.84935
Pd 12.2811 6.1428 12.2075
Pd 12.1744 5.79495 9.24602
Pd 9.33437 6.35655 9.33332
Pd 18.1114 7.18696 9.88697
Pd 16.8273 6.60937 14.3641
Pd 20.5911 4.31171 15.6016
Pd 20.3931 6.68298 19.0926
Pd 15.7723 8.04173 21.891
Pd 13.7253 7.9308 25.3657
Pd 9.38353 8.88897 19.5326
Pd 14.1071 11.0139 8.95848
Au 13.5622 6.47301 6.94876
Au 21.0197 3.72285 12.8594
Pd 15.1591 10.6011 11.9731
Au 21.99 6.81538 7.28499
Pd 18.6303 9.64078 10.5542
Au 14.532 4.50379 8.58487
Pd 18.2778 8.73793 15.0728
Au 8.8541 4.44803 13.2645
Pd 21.3717 3.95537 10.1788
Au 21.6107 5.0498 20.7728
Pd 11.9096 7.97626 15.7657
Au 22.7927 5.14457 14.3973
Pd 25.2919 12.6433 18.9957
Au 10.2639 3.69101 15.6475
Pd 14.3174 8.3905 16.7627
Au 16.9788 1.81943 16.0736
Pd 14.6336 6.23484 10.611
Au 19.5551 4.45579 22.2759
Pd 8.34485 16.9724 24.9034
Au 12.3573 10.3623 25.4367
Pd 14.6077 10.276 18.7432
Pd 15.228 10.1253 4.63695
Au 12.6884 10.9953 4.35542
Au 17.3795 11.5032 3.74154
Pd 14.5438 13.0427 10.8879
Au 19.1815 11.1038 16.0656
Pd 17.0298 11.6827 6.56694
Au 15.871 7.00077 8.35492
Pd 19.1312 8.78979 17.7532
Au 19.0791 2.47801 14.4519
Pd 16.6883 11.7781 14.9569
Au 13.802 3.75063 19.9185
Pd 16.2419 15.2728 20.7015
Au 17.5395 4.39305 15.9516
Pd 16.2976 12.358 17.5989
Au 16.1369 13.3406 22.7148
Pd 13.2272 12.4226 23.8075
Au 16.5089 12.2424 27.2135
Pd 16.2971 10.6671 22.2028
Au 14.593 3.01181 17.4973
Pd 19.6119 14.2534 24.1961
Au 24.4728 11.6962 21.4362
Pd 18.5581 13.7797 21.6874
Pd 16.8708 16.3587 6.22248
Au 12.3681 13.6964 5.07937
Au 17.1715 13.8123 4.98535
Pd 21.3645 16.0711 7.51315
Au 19.1645 12.3144 8.26296
Pd 18.8046 19.7952 8.83043
Au 16.6408 12.8245 12.5197
Pd 12.5795 14.9268 14.489
Au 17.5776 15.0106 13.7432
Pd 18.3464 16.6005 11.6184
Au 14.3532 11.3634 16.1714
Pd 15.6246 9.30048 14.5528
Au 20.3048 13.4204 17.2094
Pd 17.2525 16.9726 18.753
Au 20.1908 20.6622 19.5408
Pd 21.1753 14.8113 22.0032
Au 12.3405 5.82017 24.6567
Pd 16.4029 12.4518 20.1821
Au 12.6094 15.0611 26.5813
Pd 17.117 13.9896 25.2434
Au 15.7708 27.4549 21.1241
Pd 19.1061 8.17082 24.5005
Pd 19.3225 20.0775 6.13206
Au 20.6199 18.1736 4.90083
Au 14.75 12.8438 3.68959
Pd 16.6762 18.9683 7.26898
Au 16.1322 21.1378 12.4208
Pd 18.9248 21.3483 11.5024
Au 15.4404 16.6534 10.9073
Pd 15.1506 19.5255 14.7409
Au 13.9496 21.8653 16.0265
Pd 17.2128 18.9463 11.0927
Au 14.4903 18.8687 12.2141
Pd 13.6249 27.8532 16.2129
Au 18.0493 14.5407 27.6902
Pd 17.148 26.074 15.3547
Au 13.2099 20.0342 19.667
Pd 16.8221 25.5256 12.7641
Au 15.3423 14.7347 27.2878
Pd 14.1687 23.1379 9.76511
Au 15.0054 16.9107 22.6693
Pd 15.8843 16.745 25.2937
Au 22.1028 15.5374 24.463
Pd 15.9795 23.9801 22.0026
Pd 18.6567 22.5294 9.10961
Au 20.5996 21.8618 7.48977
Au 14.7732 14.7327 5.74878
Pd 20.8788 27.2467 14.8016
Au 13.6307 20.8403 10.65
Pd 15.9646 27.1497 8.66506
Au 14.807 23.7001 12.4649
Pd 8.07398 24.8714 12.7081
Au 18.5547 23.7984 6.72485
Pd 21.7086 25.1317 10.6752
Au 5.5644 23.7945 12.9305
Pd 15.8891 28.1876 13.991
Au 12.5319 28.6195 11.2275
Pd 21.2264 24.0423 15.4131
Au 11.88 28.4145 18.2462
Pd 10.7547 21.8379 23.6043
Au 12.6081 25.963 18.1287
Pd 14.78 27.6727 18.5993
Au 16.926 16.9745 27.747
Pd 21.5993 27.4418 17.4144
Au 23.8979 25.7768 18.3563
Pd 17.9349 25.3434 9.00093
Pd 18.3648 9.70848 7.8952
Pd 14.0531 2.51361 12.8825
Pd 22.4239 6.49955 9.86989
Pd 17.2875 4.77885 9.07748
Pd 23.5636 7.83205 15.1239
Pd 18.6291 4.99591 18.3041
Pd 19.9703 9.12968 20.1367
Pd 22.0934 8.52696 18.3106
Pd 18.8503 11.2294 21.1972
Pd 17.8061 6.98861 20.1255
Pd 21.3667 4.30516 18.1699
Pd 16.0542 9.16131 9.91487
Au 15.6387 9.55147 7.30791
Au 19.9168 5.53766 8.69744
Pd 20.9421 10.7608 9.96512
Au 23.0382 7.30075 12.4802
Pd 21.2824 10.5578 7.36631
Au 16.9289 3.25422 13.1707
Pd 18.9251 5.14741 13.6547
Au 23.2511 6.14546 18.9535
Pd 20.3025 6.00348 11.4283
Au 22.3912 7.98762 20.8678
Pd 24.5781 12.5521 16.0793
Au 24.5075 5.69892 16.4289
Pd 18.6667 7.74609 12.5595
Au 25.1811 5.95591 13.6189
Pd 18.5585 11.4668 18.6204
Au 23.0739 13.7656 20.4366
Pd 20.0242 6.95481 21.8327
Au 15.0319 7.5475 19.2764
Pd 21.8803 6.468 16.6584
Au 16.391 8.42343 24.4673
Pd 21.9521 10.9214 20.7378
Pd 9.95259 10.0021 6.53336
Au 19.5703 11.7053 5.59735
Au 17.5846 10.2677 12.8791
Pd 14.9411 14.9835 12.8752
Au 20.1433 9.9744 13.4796
Pd 21.5054 13.2855 7.11873
Au 16.7093 9.83789 17.0267
Pd 17.8832 13.8911 16.1627
Au 19.157 12.5833 13.882
Pd 21.1688 13.3422 9.85334
Au 23.3193 10.2654 16.5464
Pd 20.2013 14.8872 14.9143
Au 21.4656 12.0558 12.3271
Pd 21.7583 12.1497 15.2112
Au 20.8354 9.36853 22.707
Pd 17.7464 10.2186 25.8401
Au 19.209 16.1455 20.5891
Pd 18.3028 11.7596 23.7604
Au 19.3717 2.57922 17.2157
Pd 23.3477 13.4348 23.1303
Au 13.0394 4.53371 22.4822
Pd 17.0241 9.55154 19.7803
Pd 22.311 20.2822 5.89365
Au 19.4439 13.5998 3.64742
Au 21.2786 15.6023 4.76043
Pd 20.0845 17.5389 9.7167
Au 18.8102 12.2266 11.0008
Pd 21.2577 18.8698 7.63787
Au 19.7831 14.437 12.0388
Pd 16.4685 17.4644 13.3996
Au 21.8456 15.7128 10.8085
Pd 24.8613 16.4222 7.61053
Au 18.1969 14.1925 18.9413
Pd 11.7588 22.1341 20.362
Au 14.9144 17.7797 19.973
Pd 21.3306 17.2628 16.4105
Au 21.4511 15.5186 18.6947
Pd 14.8358 19.3245 24.0604
Au 23.1675 22.4964 21.7791
Pd 19.9271 18.0437 18.8097
Au 21.7865 17.1648 20.9648
Pd 25.5469 14.3045 21.0984
Au 15.2433 5.54969 21.3338
Pd 17.1752 22.2579 20.1474
Pd 21.1016 22.5555 10.247
Au 22.9569 21.3904 8.43106
Au 21.3266 19.9502 10.0179
Pd 12.2694 18.3266 10.568
Au 17.3479 17.0217 9.01092
Pd 17.938 19.7233 13.8216
Au 12.4224 19.0483 14.2238
Pd 10.1412 26.5042 17.2407
Au 22.9529 17.5283 9.26521
Pd 16.7752 21.3321 15.6652
Au 18.3471 21.4441 17.7532
Pd 16.3144 23.4947 17.8158
Au 16.122 18.9276 17.1666
Pd 18.9092 17.2812 14.5907
Au 27.0872 14.6944 18.9265
Pd 16.2709 28.2581 16.5726
Au 18.4363 27.595 21.6724
Pd 14.4604 22.4598 20.5932
Au 19.8658 22.4351 24.4704
Pd 20.2176 25.5805 21.0033
Au 25.2305 21.7628 15.4391
Pd 19.895 16.9085 23.2947
Pd 20.7048 23.0802 12.9525
Au 18.4433 27.8293 13.7537
Au 23.2035 23.1938 11.7421
Pd 17.5524 25.4834 20.5595
Au 15.0892 27.7599 11.5163
Pd 19.1954 24.5053 11.2121
Au 20.4162 24.4716 8.49187
Pd 16.2609 23.4567 8.31337
Au 15.7366 23.6919 14.996
Pd 13.0162 23.3967 22.7551
Au 16.4977 25.4485 6.65019
Pd 17.2642 21.508 6.86036
Au 24.6467 21.261 12.8201
Pd 19.6227 25.7587 16.6547
Au 22.3825 21.6038 15.0518
Pd 17.6713 27.1136 10.9577
Au 13.4383 19.6271 26.4813
Pd 14.8129 25.5081 16.7906
Au 19.5385 27.0654 19.029
Pd 17.1883 26.0857 17.9835
Au 17.4424 15.7507 23.1806
Pd 18.653 18.9636 16.5298
Pd 20.2538 8.56431 6.00333
Pd 20.8619 7.05485 14.0011
Pd 23.2086 11.8742 8.83031
Pd 19.2913 6.54532 16.1575
Pd 23.2772 4.77111 11.8068
Pd 18.2128 8.90345 22.2506
Pd 27.077 12.8501 17.038
Pd 22.8276 12.8049 18.0202
Pd 21.0342 9.01673 15.8456
Pd 15.7411 11.7016 24.6896
Pd 22.5897 14.7808 16.1629
Pd 20.3621 8.21605 8.80233
Au 19.5326 9.97098 3.59885
Au 23.2774 8.95801 6.4333
Pd 21.1128 8.5932 11.3973
Au 22.8098 9.87673 13.7155
Pd 24.9709 6.66753 10.8245
Au 18.8466 3.71536 11.1422
Pd 26.1492 10.9604 12.2802
Au 25.3904 8.49415 12.822
Pd 23.5803 10.5948 11.2801
Au 22.8925 10.8328 23.5011
Pd 26.7032 12.6413 14.429
Au 25.9702 10.4607 17.3902
Pd 25.4248 10.2326 14.8208
Au 26.1672 7.71758 15.4512
Pd 23.9401 10.299 19.1752
Au 26.8299 16.0166 12.8703
Pd 14.228 9.79174 23.5655
Au 20.7988 12.2562 22.756
Pd 20.5252 13.066 19.9017
Au 23.8103 15.9222 22.3203
Pd 21.0733 10.8814 18.0927
Pd 23.2471 14.6913 8.74181
Au 21.8553 10.3372 4.65946
Au 24.587 7.38804 8.25054
Pd 23.6202 13.4151 11.0667
Au 21.8767 12.9954 4.46488
Pd 19.1043 17.4393 6.98203
Au 22.9281 9.09234 9.17741
Pd 26.0726 13.6481 12.0899
Au 23.6147 11.7725 6.13314
Pd 25.522 9.19871 10.1932
Au 24.1002 12.2602 13.4669
Pd 22.5724 18.5639 18.8818
Au 25.0009 14.836 17.3274
Pd 22.3614 14.3817 13.3522
Au 24.9299 20.8652 20.6823
Pd 27.1773 15.0747 15.6518
Au 24.4118 18.2912 21.4141
Pd 21.021 23.1428 20.2146
Au 18.7284 18.8319 26.5223
Pd 17.5927 6.28202 22.8474
Au 17.7096 20.95 25.0814
Pd 11.1925 4.09088 20.3648
Pd 24.1842 19.1635 7.69748
Au 23.0039 17.5104 5.96097
Au 23.5205 14.7004 5.99943
Pd 25.1996 13.3164 7.63844
Au 25.1359 10.3099 7.84039
Pd 25.6517 12.0178 9.92216
Au 24.3516 15.957 11.9064
Pd 24.8736 14.7207 14.4142
Au 26.2182 19.4258 16.4214
Pd 25.6799 14.8984 9.79473
Au 19.8082 18.9333 12.0684
Pd 22.2953 18.1961 23.4117
Au 23.1535 16.8143 14.3613
Pd 23.999 17.3656 16.9096
Au 22.298 20.9526 23.8347
Pd 19.1587 12.5301 26.302
Au 24.6993 8.08224 17.6747
Pd 22.8087 21.4732 19.0966
Au 21.732 12.8673 25.25
Pd 18.7222 23.4266 21.9149
Au 19.7292 3.19995 19.9302
Pd 20.4193 21.4355 22.1114
Pd 20.8169 22.5123 17.486
Au 24.1228 20.0129 10.4111
Au 19.6624 21.386 15.0195
Pd 21.9584 20.8235 12.4734
Au 25.4934 17.6073 9.9614
Pd 25.4241 18.4548 12.4881
Au 22.7351 18.2821 11.9574
Pd 21.107 19.0726 14.453
Au 25.8523 17.2696 14.9322
Pd 26.6262 16.9474 17.5977
Au 23.6765 20.1432 17.0041
Pd 19.159 16.0437 17.1594
Au 21.3248 23.9937 22.9041
Pd 20.8521 16.6927 13.0382
Au 16.7166 16.4763 16.0274
Pd 21.4841 24.9577 18.3398
Au 24.5071 23.4953 19.6099
Pd 22.7907 25.0832 20.744
Au 19.1659 25.5316 23.4489
Pd 14.5571 14.5569 24.6922
Au 20.3902 10.5281 25.0174
Pd 26.364 16.785 20.3622
Pd 14.705 21.1429 7.77414
Au 19.3156 25.2422 13.877
Au 22.1316 25.4656 13.2314
Pd 19.7367 18.8733 21.5107
Au 23.8522 23.7355 14.2935
Pd 23.4672 23.2981 17.0805
Au 20.1833 26.9184 11.9688
Pd 16.6472 26.1384 23.2824
Au 23.9192 19.3464 14.4974
Pd 17.899 22.9226 13.4475
Au 25.6083 21.5714 18.1465
Pd 21.0378 19.9272 17.0352
Au 25.3097 18.863 18.9357
Pd 22.3435 19.8988 21.2565
Au 20.9453 17.5642 25.7361
Pd 13.3923 26.9865 9.43776
Au 23.0405 25.8623 15.8824
Pd 24.0065 16.1806 19.4653
Au 18.3837 23.5853 16.04
Pd 14.5373 25.9908 14.1736
Au 17.4122 23.59 24.3309
Pd 18.9043 24.044 18.8123
