665
Atoms. Timestep: 20552
Pd 13.6787 10.7296 3.33985
Pd 11.9876 19.5126 14.6602
Pd 10.1104 12.3225 9.32943
Pd 13.2818 5.31406 13.5566
Pd 17.7849 15.6869 15.2877
Au 10.8832 10.2921 3.02206
Au 15.8001 14.1494 14.2337
Pd 17.996 9.86635 16.6761
Au 8.31213 5.04259 12.3212
Pd 12.1185 8.23341 16.6114
Au 15.0398 7.68423 7.54614
Pd 9.51854 17.8183 19.4358
Au 9.1823 17.151 11.6229
Pd 11.6683 19.2022 20.1073
Au 6.33033 20.4627 19.9388
Pd 8.72711 15.5872 13.7197
Au 7.59502 10.6916 7.74505
Au 21.9822 8.55664 6.97571
Pd 13.0926 5.68639 7.43951
Au 20.2448 3.02047 17.0903
Pd 18.2453 22.4598 20.6635
Au 10.6326 4.58366 13.9963
Pd 13.7008 14.8148 6.80042
Au 6.95072 17.6462 19.9754
Pd 12.1702 22.0395 15.4721
Au 12.0096 25.8216 23.1187
Pd 15.1281 18.7705 25.8403
Au 7.03904 19.1989 7.95079
Au 1.78822 16.8141 12.1694
Pd 19.6848 5.41992 17.6889
Au 15.071 11.0462 22.7361
Pd 10.4619 12.5481 23.1222
Au 21.7657 24.1538 18.5828
Pd 4.99123 19.6321 17.8107
Au 19.9061 18.5464 26.1734
Pd 19.3561 17.394 19.0995
Au 12.7818 9.8914 25.6243
Pd 16.2809 16.2182 25.1794
Au 8.69852 10.5431 5.29467
Au 4.24406 10.9984 16.3147
Pd 13.2972 6.23705 11.0145
Au 12.4911 2.94066 15.0352
Pd 3.57004 15.2793 18.3073
Au 17.9169 6.21192 8.04614
Pd 13.8962 21.9877 19.7765
Au 5.67504 13.007 22.9631
Pd 21.9463 14.2799 13.0741
Au 9.84306 13.8483 25.3689
Pd 10.7068 13.548 20.6042
Au 12.2249 12.8791 3.25443
Au 16.0057 19.0492 4.19965
Pd 11.3768 14.5838 8.22722
Au 17.6955 9.47726 4.72344
Pd 7.59213 16.9039 15.6493
Au 6.15675 23.5364 11.118
Pd 8.25542 25.1464 15.7908
Au 5.36124 21.2738 15.6764
Pd 18.701 17.053 21.6807
Au 7.19587 24.1576 18.2109
Pd 9.27218 12.2633 11.8202
Pd 7.72615 14.7629 11.2635
Pd 20.7652 9.78291 12.6451
Pd 12.1869 12.0883 7.58518
Pd 13.9854 12.33 13.6104
Pd 8.83777 10.1683 10.1642
Pd 14.6744 5.6971 17.7814
Pd 21.7865 16.9722 24.9967
Pd 11.3338 16.8302 23.9836
Pd 5.57823 16.3666 11.2443
Pd 8.7025 9.36619 23.9522
Pd 12.8886 23.8867 21.5463
Pd 8.97073 19.183 9.80358
Au 14.7557 12.8393 8.37785
Au 12.656 17.1115 7.94348
Pd 15.4672 17.0079 14.4594
Au 11.6381 6.27772 5.26333
Pd 7.48706 19.804 14.9778
Au 4.46287 16.8899 20.2919
Pd 9.53226 9.02019 15.6383
Au 8.41554 4.97078 18.0291
Pd 14.9044 16.5805 19.0937
Au 9.51015 23.0678 17.2952
Pd 15.4391 4.58558 11.9648
Au 6.25312 18.6196 22.3017
Pd 10.2314 11.1841 19.3513
Au 12.4538 8.712 11.9503
Pd 16.1187 11.2347 17.9636
Au 6.31708 15.6986 22.0258
Pd 11.889 10.0322 14.4241
Au 8.16804 8.13506 8.46142
Pd 16.8514 21.0367 25.6437
Au 14.5997 10.5042 20.022
Pd 16.2089 17.4732 22.7284
Pd 14.1258 23.7886 12.2263
Au 2.34615 19.4388 12.9133
Au 14.7317 8.63829 10.268
Pd 4.18629 14.2462 21.0358
Au 22.8235 5.52153 13.1145
Pd 15.0511 17.5847 9.57987
Au 6.75582 11.4358 15.2051
Pd 5.85309 14.477 16.5794
Au 8.14405 15.697 17.8449
Pd 19.2981 10.5118 19.0497
Au 18.1927 24.5672 19.0465
Pd 22.0435 14.1283 10.4451
Au 2.81185 12.3989 12.795
Pd 23.5981 17.8454 20.254
Au 14.9916 14.1442 26.5312
Pd 6.75242 24.4469 13.5633
Au 18.8615 4.2 21.6164
Pd 14.7795 22.4344 22.6764
Au 8.13907 8.22378 21.5088
Pd 1.88976 17.5147 14.7878
Au 13.3243 8.72502 21.8172
Pd 13.3918 26.5402 20.8818
Pd 19.0342 20.2238 7.33059
Au 12.1533 21.5752 7.33663
Au 10.4096 6.96894 7.54943
Pd 14.9303 9.34752 5.2936
Au 16.6951 8.66905 14.623
Pd 11.8633 16.5883 5.45531
Au 17.031 7.39353 24.1973
Pd 13.4387 17.986 13.0462
Au 7.96169 22.5076 15.0906
Pd 13.8392 12.2874 5.47383
Au 21.8656 25.8864 16.4607
Pd 6.80943 13.1877 7.17622
Au 16.0605 23.6121 24.679
Pd 8.59015 15.4422 20.5181
Au 11.9806 26.8464 18.4352
Pd 21.9111 20.7302 23.8223
Au 10.3685 20.8749 25.2522
Pd 12.1436 19.5768 17.3508
Au 10.1195 17.8286 16.8584
Pd 17.445 15.0504 22.9772
Au 8.33845 19.4148 24.0653
Pd 21.3762 21.8862 16.8871
Pd 10.3365 8.0931 10.1611
Au 11.72 26.1057 12.6287
Au 4.52357 21.3477 11.2035
Pd 8.71247 11.2241 17.1205
Au 9.41161 21.2108 8.07993
Pd 20.0065 18.8389 4.30547
Au 9.63171 15.9666 6.62189
Pd 18.8648 8.0582 13.1545
Au 3.30211 13.246 10.2168
Pd 8.46905 19.8292 12.265
Au 5.64238 14.5807 9.19775
Pd 19.7183 24.326 16.7296
Au 10.1421 7.206 22.9686
Pd 15.0682 16.076 11.9249
Au 10.3159 3.63157 16.517
Pd 23.997 23.0077 14.052
Au 12.0923 22.4882 26.3499
Pd 24.8737 19.9617 19.4151
Au 8.02296 11.9429 24.2136
Pd 12.5936 12.8962 10.0836
Au 10.8021 19.194 22.6979
Pd 19.6048 17.2069 16.3032
Pd 16.3715 19.9296 6.73096
Au 16.6836 27.2763 10.5358
Au 15.4406 21.3862 12.0393
Pd 10.4917 13.2205 17.5096
Au 4.96645 19.8617 13.3173
Pd 10.2187 21.4885 10.6765
Au 5.6898 8.58868 20.5865
Pd 22.1759 19.1658 15.9408
Au 3.81685 12.7137 18.7496
Pd 14.8756 21.9486 7.61977
Au 13.4423 24.6401 19.05
Pd 12.0044 12.6722 15.3855
Au 14.8755 19.7141 14.5221
Pd 16.5727 15.3093 9.62957
Au 20.5051 14.6252 15.4849
Pd 11.6944 24.5263 16.9211
Au 7.21861 6.94278 16.2378
Pd 6.67151 10.4568 22.3566
Au 6.7915 21.2709 22.5147
Pd 19.8246 19.4152 14.6731
Au 16.4242 27.031 16.1032
Pd 17.9344 14.1923 25.6383
Pd 4.12445 17.3811 13.2745
Pd 18.62 10.5763 14.0243
Pd 5.11145 11.8315 8.82022
Pd 14.461 12.9469 16.4225
Pd 23.478 8.95812 20.2685
Pd 17.1101 13.6013 16.8424
Pd 21.3119 7.98965 21.5028
Pd 20.7547 15.4248 6.10882
Pd 13.9442 12.9484 21.2482
Pd 23.7338 6.21051 15.5825
Pd 11.5604 10.9002 5.37652
Pd 18.5868 11.348 7.93024
Au 14.2358 6.6463 5.15518
Au 24.9788 22.0352 8.30771
Pd 19.488 14.8786 10.3169
Au 24.0474 9.77716 8.42571
Pd 23.1336 16.7974 6.61353
Au 22.9572 7.47408 9.20185
Pd 22.2155 11.8468 11.9744
Au 15.6511 4.98294 7.28817
Pd 11.2812 10.724 16.919
Au 9.98068 6.46566 16.624
Pd 8.34 13.1159 19.1157
Au 12.7278 19.8866 26.8101
Pd 12.7429 14.7955 17.304
Au 19.3175 8.36174 25.4316
Pd 14.7147 6.43619 22.8279
Au 12.0583 11.1729 21.3035
Pd 16.7985 7.31668 16.8016
Au 12.59 12.399 26.5513
Pd 18.6613 26.5999 12.0958
Au 6.90232 15.9769 7.0176
Pd 9.74067 6.40499 20.0845
Pd 22.4749 7.83281 11.7705
Au 21.2283 12.6524 5.52914
Au 8.23555 14.2955 5.24475
Pd 10.5746 15.498 18.7109
Au 13.9621 19.4666 7.96423
Pd 19.277 5.01407 10.1049
Au 12.6019 7.80052 8.95285
Pd 4.66851 10.6076 13.6829
Au 6.41397 6.45612 13.6589
Pd 21.3207 4.97399 15.2711
Au 15.1779 13.442 11.086
Pd 8.02558 13.1677 21.7838
Au 5.84545 12.1173 20.4646
Pd 7.39624 12.4282 9.84533
Au 3.0589 17.8074 17.2735
Pd 8.66637 17.3805 22.331
Au 4.19667 10.76 11.0774
Pd 11.9477 22.0906 18.0893
Au 6.11457 14.6837 19.3788
Pd 9.83099 20.5588 16.0907
Au 21.5138 5.33936 21.9466
Pd 16.562 24.9291 12.019
Pd 22.7831 18.0571 8.92775
Au 11.8472 19.1446 6.22116
Au 16.2532 24.2039 7.19668
Pd 12.9655 22.0316 10.0036
Au 9.12809 25.8129 13.2771
Pd 22.4834 13.8495 7.68917
Au 15.998 16.2826 7.14052
Pd 10.6229 13.7979 13.5327
Au 12.8391 12.3409 18.683
Pd 15.3693 23.2587 9.90449
Au 12.4038 16.9894 10.7612
Pd 14.2616 2.68325 13.2347
Au 10.1938 21.3399 13.5523
Pd 12.4081 9.55315 18.9974
Au 23.5247 23.6462 16.6231
Pd 15.7216 23.8612 20.6332
Au 4.69939 10.173 18.8289
Pd 19.6965 19.6503 17.3288
Au 14.2859 21.4939 25.2742
Pd 10.2839 24.0835 22.0537
Au 13.1403 17.0758 26.4362
Pd 15.8282 25.2728 18.1988
Pd 11.3065 16.4365 13.276
Au 8.76235 23.3055 12.2069
Au 17.152 22.9923 13.7282
Pd 7.66265 18.8127 17.5984
Au 10.4612 14.6844 10.907
Pd 6.94742 17.8184 13.1765
Au 7.49625 13.2228 13.4772
Pd 14.0673 10.2127 7.9622
Au 5.01358 7.68222 17.9089
Pd 5.50425 13.0855 11.6724
Au 12.2312 6.22942 21.5339
Pd 16.7878 21.3415 15.9476
Au 13.266 14.9582 14.6119
Pd 9.49945 21.6313 22.7474
Au 8.7922 16.7002 24.9459
Pd 7.44523 14.5571 24.1634
Au 20.2303 24.3519 20.8864
Pd 17.3458 18.7418 15.7495
Au 19.8103 23.107 23.2723
Pd 18.3955 13.2101 14.4915
Au 22.1196 22.7687 21.8955
Pd 16.7987 19.8091 18.1337
Pd 15.8371 13.9231 5.35648
Au 1.49016 15.6924 16.686
Au 12.5848 8.3939 3.8353
Pd 15.6058 6.23406 9.6908
Au 17.5989 24.5725 22.4242
Pd 13.6496 15.1415 4.2107
Au 4.80086 20.1197 8.91227
Pd 5.30652 18.2712 15.4871
Au 5.03323 17.3977 8.63645
Pd 17.8195 22.5072 11.1145
Au 5.60269 16.9288 17.7373
Pd 11.4326 13.9328 5.56136
Au 2.92332 13.4284 16.33
Pd 8.62798 14.5234 8.65718
Au 3.67205 14.8732 12.441
Pd 24.2871 18.2927 17.2829
Au 17.5908 27.2822 18.5619
Pd 11.4839 23.4127 12.1428
Au 26.0297 11.8138 11.2379
Pd 3.15631 19.8057 15.4314
Au 18.6977 26.5332 20.9366
Pd 14.3529 20.9376 17.0329
Pd 22.0554 11.5464 16.8722
Pd 10.2142 8.48135 5.1628
Pd 4.76281 13.1946 14.4473
Pd 15.8872 18.6428 12.0122
Pd 9.20736 10.7485 21.7305
Pd 25.7899 9.9878 13.8094
Pd 11.901 10.3128 9.79967
Pd 23.8143 11.8539 24.5279
Pd 9.5409 11.5235 14.5292
Pd 8.02142 22.1089 24.8161
Pd 9.72602 15.0189 22.9127
Pd 24.2719 19.5786 7.15454
Au 23.7661 16.2079 13.2595
Au 3.207 15.9165 9.97688
Pd 13.1672 3.2887 17.5693
Au 21.7741 17.2074 17.8229
Pd 23.8634 13.8178 20.0534
Au 6.77402 9.43995 17.0535
Pd 21.9092 22.9619 11.9815
Au 9.06509 6.99116 13.9337
Pd 16.592 13.2219 21.4031
Au 15.9445 20.4874 9.57708
Pd 12.8668 12.0955 23.8896
Au 19.824 9.08315 8.4625
Pd 19.3825 14.4443 21.0294
Au 13.6089 4.46231 19.9632
Pd 17.0988 12.4137 23.9277
Au 17.5216 6.37168 11.5759
Pd 14.3804 7.30263 15.3423
Au 11.0952 4.51115 18.8438
Pd 17.1266 5.92769 19.0409
Au 6.96112 10.7713 12.1273
Pd 6.25868 12.1749 17.7585
Pd 13.6144 19.5453 10.781
Au 19.4051 7.61796 6.14454
Au 15.0452 25.7991 9.10271
Pd 17.3121 9.04699 7.27367
Au 27.1673 13.3525 16.4368
Pd 21.2313 16.0106 8.65559
Au 16.0915 22.1979 5.28026
Pd 21.7955 11.1611 7.66332
Au 16.8259 6.97676 5.58239
Pd 17.2585 4.73036 16.6558
Au 16.8566 3.97436 9.70564
Pd 11.4182 5.20504 9.43136
Au 4.97638 8.38759 15.233
Pd 9.49795 18.5511 7.21835
Au 10.7332 15.9075 26.6655
Pd 21.9203 19.807 10.8588
Au 12.4066 5.48653 16.2517
Pd 22.9498 10.1915 14.0887
Au 17.6915 2.19323 16.6412
Pd 17.1029 14.4815 28.1212
Au 19.9941 10.2184 5.86003
Pd 18.3656 16.5193 27.057
Pd 18.6811 16.178 8.04283
Au 27.7798 17.8374 16.3152
Au 26.6723 19.9366 8.31093
Pd 14.2172 10.9874 11.2259
Au 16.2042 11.3714 6.55625
Pd 7.87667 7.82283 11.5177
Au 18.94 24.9007 7.38129
Pd 7.32084 9.045 14.1231
Au 9.7433 8.66258 18.3266
Pd 7.6224 10.2358 19.5604
Au 12.297 3.78362 11.6615
Pd 8.63933 19.7504 21.0832
Au 9.80845 9.4615 12.6714
Pd 17.9089 17.5773 13.4595
Au 19.3159 22.0801 15.1075
Pd 23.0599 9.48001 23.0974
Au 15.6639 16.7364 27.6338
Pd 14.2832 17.7424 5.76902
Au 5.04018 22.3742 18.2174
Pd 6.02509 15.4423 13.8515
Au 18.5403 28.1438 14.2801
Pd 23.4127 15.8857 22.0826
Pd 8.87563 5.92363 9.82921
Au 21.6664 16.7767 4.14272
Au 9.4948 25.9256 18.001
Pd 24.464 19.8514 9.83504
Au 9.50579 12.5609 6.80341
Pd 18.8388 10.374 10.8945
Au 16.3337 10.7451 9.45069
Pd 8.36676 13.728 15.9451
Au 26.3871 16.4907 12.5672
Pd 14.8252 18.2855 16.8888
Au 5.74286 23.8641 15.9675
Pd 9.7635 20.4465 18.6895
Au 18.0982 12.8844 19.1958
Pd 13.3065 23.9787 24.5027
Au 10.3781 23.6217 24.6225
Pd 14.2856 23.5432 16.7673
Au 10.6276 18.4258 25.9701
Pd 17.0975 23.9431 16.3775
Au 17.6335 18.603 24.7761
Pd 17.2744 15.4966 19.8881
Au 13.983 16.635 23.894
Pd 18.0918 25.4798 14.5115
Pd 12.8296 24.5004 14.4611
Au 7.74488 23.7653 22.7165
Au 10.7192 26.444 20.7683
Pd 12.8984 15.0073 19.9606
Au 28.2304 17.9585 13.6166
Pd 14.6577 22.3543 14.4849
Au 23.4618 22.2853 19.4305
Pd 12.8494 21.2065 12.7771
Au 16.244 27.3805 13.3271
Pd 25.7001 13.4023 9.03656
Au 12.651 17.2194 15.7725
Pd 7.40419 21.4297 17.5751
Au 1.78598 14.7549 14.2128
Pd 28.1485 20.1902 12.1886
Au 4.56101 22.7797 13.5763
Pd 13.471 20.2176 21.7775
Au 16.092 26.5008 20.7042
Pd 6.27057 18.9385 10.8475
Au 11.1209 19.1519 11.9091
Pd 11.135 16.6726 21.2179
Au 25.6977 15.7674 20.9236
Pd 16.182 22.4305 18.4706
Pd 20.8934 11.9864 14.4444
Pd 10.5166 15.389 15.7992
Pd 12.8782 14.4962 12.0957
Pd 15.9812 8.6445 21.7758
Pd 21.8279 6.76156 19.3376
Pd 20.2121 9.51973 23.2619
Pd 8.20072 4.73492 15.1602
Pd 17.3933 21.9356 23.131
Pd 20.5103 15.0054 26.2171
Pd 14.8596 4.50046 15.4419
Pd 15.0906 7.21544 12.6961
Pd 11.7441 11.5754 12.2924
Au 7.17198 21.254 10.004
Au 10.7416 6.16687 11.873
Pd 20.0429 18.3871 9.44243
Au 17.476 14.0885 3.24093
Pd 17.1676 13.7171 7.63588
Au 20.0143 7.61819 10.7508
Pd 20.6377 22.6854 7.80376
Au 23.6776 5.19503 20.1723
Pd 21.6275 9.39433 18.4435
Au 21.6418 9.88575 25.5323
Pd 17.1935 6.3592 21.6991
Au 16.1122 20.8055 20.7804
Pd 16.6565 2.98812 14.2442
Au 6.21915 9.49166 9.81886
Pd 22.4915 4.72724 17.6576
Au 25.8137 8.14954 15.8266
Pd 10.7661 8.69597 20.8606
Au 19.3868 10.3439 27.3055
Pd 16.6666 9.32916 12.0353
Au 19.2406 11.4804 25.0543
Pd 14.7627 6.87803 20.1918
Pd 11.6908 7.34849 14.1807
Au 17.5059 20.3082 13.512
Au 27.0912 12.2286 14.0817
Pd 19.4574 6.28431 20.26
Au 12.5618 7.45845 24.1056
Pd 21.8265 9.80172 10.0749
Au 16.7879 11.9163 12.5355
Pd 16.1416 4.19707 20.7671
Au 24.5786 14.2563 11.4959
Pd 18.0774 3.87201 12.2324
Au 24.7107 13.8144 22.9055
Pd 24.7394 11.3546 15.9798
Au 23.8406 11.6032 21.731
Pd 12.9237 19.1518 24.2758
Au 22.8557 18.3257 22.9587
Pd 19.3257 20.7903 24.6467
Au 11.2983 21.7273 20.7551
Pd 18.3311 3.52056 19.0439
Au 13.9309 10.3722 16.2571
Pd 13.6353 17.6205 21.3728
Au 7.45453 7.36472 18.9679
Pd 12.2704 6.85983 18.8931
Pd 16.2823 11.4073 15.1592
Au 12.6921 24.9474 10.2293
Au 20.1561 14.3317 3.78596
Pd 12.5502 8.58115 6.46037
Au 23.6333 11.3702 18.9688
Pd 21.6988 20.1985 7.91701
Au 9.72426 12.5262 3.95783
Pd 19.0832 16.4263 24.5017
Au 22.9374 18.783 13.1279
Pd 18.0531 17.0741 10.8783
Au 25.8243 10.1837 20.6623
Pd 17.9541 19.5098 22.3058
Au 14.3214 26.4757 11.6942
Pd 21.3927 10.639 20.9269
Au 17.1504 10.8311 20.7039
Pd 20.1657 20.8541 21.9391
Au 14.969 1.9555 15.9984
Pd 23.8802 21.116 12.1173
Au 17.3549 18.9229 27.3485
Pd 21.3903 17.0361 14.374
Au 5.33269 8.47106 12.2431
Pd 20.6387 26.3011 14.0609
Pd 20.647 6.50441 8.30887
Au 7.55805 16.8939 9.40448
Au 22.4519 19.1759 5.31794
Pd 25.7249 19.2525 12.565
Au 27.1498 10.4986 16.2279
Pd 19.472 12.2021 16.8268
Au 19.6953 15.6268 12.9557
Pd 26.0377 15.9133 16.7079
Au 16.2905 11.5218 3.87835
Pd 24.4349 17.4583 10.9723
Au 24.1929 9.89777 11.5098
Pd 17.5302 24.7962 9.60339
Au 17.3998 14.7049 12.2151
Pd 18.1938 15.1552 5.63546
Au 15.7357 3.23469 18.3003
Pd 3.91547 15.8711 15.5032
Au 19.2555 26.9689 16.4509
Pd 23.0186 13.3919 15.2587
Au 6.13451 23.1767 20.5751
Pd 21.8571 13.6062 21.737
Au 21.0998 26.1426 11.3239
Pd 23.8836 21.0383 17.1353
Pd 23.1822 23.9224 7.64208
Au 8.60781 22.4194 20.149
Au 18.0868 20.5309 4.68796
Pd 19.8005 13.6594 7.7344
Au 10.9431 23.4202 8.87086
Pd 13.6343 27.1291 14.1842
Au 23.04 14.5307 5.06304
Pd 6.79652 21.6552 12.8628
Au 17.3985 18.3908 8.60031
Pd 25.3711 9.3643 18.1579
Au 19.5365 24.0531 12.7166
Pd 15.3878 25.0468 14.5222
Au 21.1847 24.0057 5.77153
Pd 18.1028 19.7628 10.9276
Au 10.3817 11.2048 25.4815
Pd 13.4241 24.0262 7.87884
Au 22.9216 24.7552 10.1257
Pd 8.41892 23.4416 9.54506
Au 9.60303 18.2768 14.2462
Pd 22.6827 22.0855 9.59405
Au 24.2907 12.1526 6.99608
Pd 18.8429 16.6094 3.57672
Pd 24.5357 20.2866 14.7479
Pd 17.633 9.89208 23.3639
Pd 26.634 14.5386 18.8722
Pd 19.8356 13.8597 23.776
Pd 20.0656 5.65854 12.8371
Pd 19.3005 7.98758 18.1315
Pd 13.7899 26.177 16.5595
Pd 12.5626 14.6262 25.2198
Pd 24.9674 14.8427 6.90336
Pd 19.0041 3.98565 14.8328
Pd 26.2987 11.8275 18.4856
Pd 25.5025 17.7736 14.8432
Au 16.8924 8.67491 19.1394
Au 14.8206 13.3157 2.82568
Pd 10.2758 9.8436 7.65187
Au 23.3702 9.02247 16.3634
Pd 24.4511 12.2629 13.2983
Au 20.5447 17.9891 6.78022
Pd 24.6149 13.5935 17.3689
Au 25.4916 17.4728 8.22096
Pd 13.8543 15.1865 9.4497
Au 24.3211 7.83508 13.6111
Pd 21.5476 7.64845 14.2133
Au 26.2041 12.8832 20.9426
Pd 14.0261 20.4932 5.42278
Au 19.413 6.68228 23.1217
Pd 18.465 12.4762 5.34377
Au 27.0266 18.3942 10.4349
Pd 20.9012 12.7149 19.3248
Au 14.4238 9.67892 13.6484
Pd 14.6665 27.5318 18.6597
Au 19.4095 13.0288 27.585
Pd 20.5024 9.56086 15.7847
Pd 19.2224 11.9041 21.9555
Au 20.5003 12.1269 9.76216
Au 26.3211 22.0011 13.1807
Pd 21.8051 16.6838 11.2648
Au 26.4463 21.3855 10.57
Pd 17.7162 22.2877 8.40342
Au 21.2862 25.5903 8.19806
Pd 20.9235 4.05722 19.6869
Au 21.4785 23.8117 14.7169
Pd 22.0686 14.3326 17.6756
Au 23.3905 16.0327 15.9251
Pd 17.0245 9.68002 25.8847
Au 17.0563 12.0542 26.9915
Pd 18.8413 19.9065 19.8243
Au 15.2697 13.788 18.9602
Pd 17.781 12.8582 10.114
Au 25.9029 22.2874 15.8873
Pd 17.5098 8.25225 9.74123
Au 12.1425 21.8355 23.4587
Pd 16.6775 18.1759 20.2183
Au 18.7885 8.72147 21.1013
Pd 12.4171 14.6651 22.5927
Pd 17.9312 17.8896 5.84664
Au 14.0468 4.07078 9.54329
Au 26.3884 19.9145 17.2384
Pd 11.4907 19.5022 9.05279
Au 24.1947 6.93855 18.0875
Pd 19.9459 21.2409 9.8106
Au 27.3131 20.1176 14.7922
Pd 27.1656 14.0375 12.1843
Au 23.6949 6.96799 22.1619
Pd 20.9359 16.0905 22.6374
Au 24.7824 23.4145 11.3124
Pd 22.458 14.3873 24.2986
Au 25.5398 7.40577 20.2863
Pd 20.6575 21.2127 5.43388
Au 16.9347 5.78512 14.144
Pd 21.9753 21.1859 14.2171
Au 21.8011 5.49966 10.6528
Pd 14.2948 19.3219 19.2968
Au 11.2674 9.7208 23.4303
Pd 24.1407 15.9381 18.6179
Au 3.60145 18.5158 10.7883
Pd 17.2051 16.9871 17.6762
Pd 20.2368 18.601 23.4706
Au 19.2418 26.7503 9.45843
Au 14.8965 25.3097 22.835
Pd 10.015 25.1947 10.757
Au 23.9074 15.542 9.18309
Pd 18.7139 22.0536 17.862
Au 27.8481 15.4943 14.6869
Pd 23.0366 21.782 6.29062
Au 19.1318 6.82705 15.4644
Pd 14.9779 11.5266 25.4515
Au 20.7882 21.8623 19.59
Pd 20.0727 23.9738 10.0495
Au 14.9298 13.9566 23.8386
Pd 20.2407 26.2837 18.7671
Au 21.5351 7.16942 16.7994
Pd 21.5324 12.527 26.0433
Au 26.3051 17.564 18.8914
Pd 21.0183 18.3908 20.8853
Au 21.7515 7.39958 24.1605
Pd 15.0619 15.4073 21.5354
Au 14.5691 8.42437 17.9139
Pd 22.8497 20.3472 21.2327
Pd 10.805 24.1246 19.4708
Au 10.9821 26.4526 15.2987
Au 20.1216 18.4426 12.2425
Pd 22.1264 19.7144 18.6929
Au 21.5265 11.7606 23.4839
Pd 18.5959 22.799 5.92835
Au 19.3772 14.9356 17.9876
Pd 14.8581 8.90296 24.2923
Au 23.5956 12.0447 9.6975
Pd 15.5152 19.9176 23.4336
Au 16.1431 16.36 4.21445
Pd 19.6126 12.78 12.1999
Au 23.0126 25.2196 12.9154
Pd 26.4963 15.7233 10.0189
Au 25.434 14.4258 14.5017
Pd 19.9048 21.2194 12.5022
Au 8.33147 25.1438 20.4268
Pd 12.4619 17.2782 18.5326
Au 15.2148 15.5514 16.644
Pd 10.2683 16.8591 9.14182
Au 21.57 15.7185 20.0044
Pd 10.2806 23.8369 14.6216
