665
Atoms. Timestep: 20172
Pd 7.9538 8.08382 8.2655
Pd 5.15382 7.95204 12.2469
Pd 3.33726 8.77472 16.5405
Pd 3.62104 8.57067 19.3155
Pd 6.8299 8.58985 22.8236
Au 8.76909 9.37706 5.94788
Au 5.83972 9.1106 9.80307
Pd 6.70176 10.3686 7.47231
Au 3.24648 9.04905 13.8433
Pd 3.94055 10.2378 11.4514
Au 3.57254 10.9174 18.1546
Pd 3.47273 11.2836 15.2891
Au 4.64759 9.65471 21.6434
Pd 4.69641 12.0657 20.4665
Au 7.9454 9.78799 25.0688
Pd 5.77999 10.867 23.8963
Au 7.54825 11.6451 5.18354
Au 4.70737 11.4598 9.02637
Pd 5.55611 12.6626 6.70809
Au 4.13612 12.5711 12.8462
Pd 4.92554 13.8099 10.4221
Au 3.59954 13.3159 17.1167
Pd 4.03782 14.5207 14.8241
Au 5.79653 13.3011 22.7512
Pd 4.72757 14.5103 19.2625
Au 6.93862 12.0627 26.0396
Pd 7.03698 14.5097 24.9409
Au 8.77127 15.2203 4.07377
Au 5.67742 15.0136 8.01076
Pd 6.63611 16.2613 5.62043
Au 4.53146 15.6354 12.5058
Pd 5.12157 16.7259 10.1974
Au 3.69582 16.0373 17.1715
Pd 4.23851 17.2722 14.8398
Au 5.78639 15.7151 21.461
Pd 4.80168 17.2672 19.3083
Au 8.32594 15.6315 27.0475
Pd 6.93319 16.8932 23.62
Au 7.61705 17.6626 3.37785
Au 5.60589 17.7445 7.8058
Pd 6.04373 18.8524 5.42089
Au 4.6624 18.3974 12.4606
Pd 5.15584 19.5073 10.0542
Au 3.79842 18.7729 17.1139
Pd 4.47241 20.0118 14.7715
Au 5.8528 18.4824 21.5236
Pd 4.82574 19.9521 19.29
Au 8.0554 17.959 25.8059
Pd 7.00332 19.6657 23.6656
Au 7.94388 22.0677 3.11748
Au 5.66046 20.507 7.62914
Pd 6.47383 19.9781 3.04192
Au 4.58398 21.1006 12.3317
Pd 5.35361 22.2147 9.97527
Au 3.94091 21.4706 17.0315
Pd 4.87075 22.6478 14.6441
Au 5.81545 21.1495 21.5122
Pd 4.7963 22.5584 19.3444
Au 9.21565 21.2107 23.663
Pd 7.98401 22.6397 21.5597
Pd 10.0366 7.10255 6.78412
Pd 7.19585 6.87938 10.645
Pd 9.27066 5.82964 9.09882
Pd 5.29598 7.73146 14.9628
Pd 7.32037 6.68469 13.3829
Pd 5.50529 7.56594 17.7077
Pd 7.51641 6.54467 16.1346
Pd 5.77476 7.4742 20.4953
Pd 7.72593 6.43109 18.9012
Pd 9.06777 7.53594 23.923
Pd 8.00854 6.39017 21.6537
Pd 11.2302 10.6331 5.73611
Au 12.4773 8.31852 6.45317
Au 10.4036 9.39742 8.094
Pd 8.28787 10.4258 9.66716
Au 9.58063 8.10007 10.4715
Pd 12.855 10.666 7.94491
Au 7.50916 9.15872 12.0379
Pd 5.52932 10.2798 13.6639
Au 7.67727 8.98855 14.8346
Pd 9.96386 10.4569 11.9341
Au 5.61663 10.0401 16.439
Pd 5.98017 12.2903 18.0061
Au 7.8807 8.85794 17.6114
Pd 8.05918 11.354 16.312
Au 5.88208 9.87953 19.2466
Pd 7.00232 11.0441 21.5404
Au 8.1228 8.76275 20.4149
Pd 8.30165 11.2371 19.0989
Au 9.2546 9.94033 22.7305
Pd 10.3238 11.0914 25.0021
Au 11.4674 8.78997 23.9792
Pd 11.6659 11.2677 22.6531
Pd 9.99975 12.9206 4.93392
Au 12.8313 12.689 4.67496
Au 9.136 11.7147 7.29987
Pd 7.07117 12.7727 8.87174
Au 10.7691 11.7486 9.55772
Pd 11.6184 12.9673 7.17009
Au 6.23855 11.5182 11.2313
Pd 6.53736 13.832 12.6951
Au 7.92878 11.535 13.5103
Pd 8.67244 12.7996 11.1185
Au 5.8208 12.5698 15.1491
Pd 6.02668 14.691 16.8391
Au 8.43041 13.6944 17.8174
Pd 8.26482 13.8312 14.998
Au 7.06843 13.4918 20.3012
Pd 8.23524 14.7063 22.5084
Au 9.44786 12.4375 21.3881
Pd 9.55621 14.9162 20.0853
Au 8.14877 12.2615 23.7765
Pd 9.28868 13.3731 26.0491
Au 12.7509 12.4411 25.0067
Pd 10.5851 13.5836 23.7
Pd 10.3552 17.3222 3.14025
Au 11.5919 14.9874 3.86811
Au 7.84513 14.0077 6.39887
Pd 8.10268 16.3247 7.8982
Au 9.47991 14.0957 8.73116
Pd 10.3551 15.2314 6.35538
Au 7.30246 15.1288 10.2882
Pd 7.04603 17.0637 12.2211
Au 8.9512 15.1196 12.5874
Pd 9.71971 16.4898 10.2167
Au 6.5119 15.855 14.5034
Pd 6.12017 17.4364 16.8841
Au 8.52632 16.1461 16.4915
Pd 9.13704 17.3446 14.1418
Au 7.14784 15.9156 19.0039
Pd 8.21249 17.1158 21.1865
Au 10.7165 16.1066 22.3495
Pd 9.59253 17.3441 18.6864
Au 9.44321 15.8709 24.7284
Pd 10.5606 17.1555 26.9005
Au 11.6481 14.7991 26.0437
Pd 11.877 17.3971 24.644
Pd 9.3095 19.7536 2.562
Au 11.8615 19.5666 3.5842
Au 9.0974 17.4797 5.52857
Pd 7.97687 19.0305 7.41317
Au 10.6112 17.6043 7.85579
Pd 10.7351 19.7313 6.12981
Au 7.49403 18.1407 9.87415
Pd 6.97493 19.8903 12.0832
Au 9.51655 18.6825 11.8524
Pd 9.86811 19.632 9.38341
Au 6.74742 18.6108 14.5069
Pd 6.24129 20.1941 16.8875
Au 8.66436 18.9868 16.6262
Pd 9.45425 20.0737 14.2503
Au 7.2344 18.7044 19.0926
Pd 8.2902 19.9518 21.3162
Au 10.5916 18.5038 20.9181
Pd 9.7109 20.2889 18.9158
Au 9.27364 18.2883 23.4015
Pd 10.2198 19.5049 25.5887
Au 12.6255 19.1865 26.7512
Pd 11.4814 19.7546 23.1464
Pd 6.31173 21.6008 5.30184
Au 10.2661 21.8292 4.32493
Au 8.35571 20.0249 4.90556
Pd 6.68942 22.971 7.67843
Au 8.8205 21.5321 7.13244
Pd 8.24287 23.3904 5.35687
Au 7.55338 20.9429 9.56059
Pd 6.57778 22.8042 12.3305
Au 9.00964 21.6092 11.8935
Pd 7.79236 23.5743 10.0554
Au 7.07119 21.294 14.4778
Pd 7.31785 23.9346 14.7297
Au 8.58855 21.8403 16.728
Pd 9.68848 22.7239 14.331
Au 7.19112 21.4344 19.1716
Pd 6.91449 24.0912 19.488
Au 10.5251 21.6591 21.2884
Pd 6.14868 22.9533 17.0296
Au 11.0526 23.2678 23.5479
Pd 9.83061 24.5196 21.4183
Au 12.0619 21.4547 25.3082
Pd 9.31845 23.097 19.1372
Pd 11.3193 4.85211 7.61477
Pd 9.36627 5.64807 11.8265
Pd 11.4323 4.63473 10.2931
Pd 9.5574 5.52149 14.5724
Pd 11.6175 4.50607 13.0284
Pd 9.75798 5.40987 17.3278
Pd 11.8154 4.40108 15.7849
Pd 9.96766 5.32276 20.0762
Pd 12.0191 4.31965 18.553
Pd 10.238 5.3372 22.7586
Pd 12.2409 4.29239 21.2863
Pd 14.0846 10.4157 5.50041
Au 13.7008 6.01676 7.2428
Au 11.6801 7.07961 8.90472
Pd 12.0345 9.41347 10.3688
Au 11.7874 6.9228 11.7027
Pd 14.0824 8.37304 8.72724
Au 9.72652 7.95374 13.2583
Pd 10.1303 10.3322 14.7232
Au 11.9801 6.80631 14.4704
Pd 12.1863 9.29439 13.1626
Au 9.92484 7.8318 16.03
Pd 10.3263 10.2169 17.4919
Au 12.179 6.70739 17.244
Pd 12.3767 9.18933 15.9307
Au 10.1294 7.7274 18.8051
Pd 10.5544 10.1222 20.2847
Au 12.3824 6.6387 20.0435
Pd 12.5717 9.09358 18.7121
Au 10.3967 7.67271 21.6033
Pd 13.8674 10.1472 23.8831
Au 12.6086 6.50429 22.8878
Pd 12.7785 8.97704 21.5575
Pd 14.4501 14.7981 3.80905
Au 15.7132 12.4895 4.52309
Au 14.4457 12.7379 6.94122
Pd 13.2279 13.0549 9.42298
Au 14.471 10.7449 10.2254
Pd 16.042 14.8328 6.06238
Au 12.4106 11.7859 11.8178
Pd 10.3516 12.8293 13.3875
Au 12.5757 11.6759 14.6126
Pd 14.8658 13.1486 11.714
Au 10.5059 12.7035 16.1844
Pd 10.8856 15.1328 17.6155
Au 12.769 11.5764 17.3943
Pd 12.9636 14.0673 16.0603
Au 10.7287 12.6288 18.96
Pd 11.8564 13.7983 21.2882
Au 12.9439 11.4694 20.2081
Pd 13.1294 13.9951 18.8227
Au 14.0606 12.6281 22.5932
Pd 14.5215 14.3615 25.846
Au 15.6096 12.0261 24.8297
Pd 15.8123 14.5129 23.4853
Pd 13.1904 17.1167 3.05311
Au 16.0178 16.9168 3.00773
Au 13.1569 15.0343 6.17788
Pd 11.929 15.3802 8.69746
Au 14.8049 15.1515 8.4699
Pd 14.7153 17.1442 5.33078
Au 11.0972 14.127 11.0096
Pd 11.3522 16.4468 12.4494
Au 12.8057 14.1849 13.2754
Pd 13.5525 15.4124 10.8896
Au 10.7019 15.185 14.8516
Pd 11.0075 17.6451 16.1235
Au 13.3001 16.5292 17.4421
Pd 13.1423 16.5385 14.7086
Au 11.992 16.3063 19.9139
Pd 13.1268 17.591 22.2533
Au 14.238 15.1792 21.1971
Pd 14.3636 17.7324 19.8271
Au 12.973 15.002 23.6656
Pd 13.4517 16.6812 26.8049
Au 16.2983 16.2067 26.7881
Pd 14.7765 16.8681 24.5414
Pd 12.8627 21.9526 4.62147
Au 14.6573 19.3447 3.44599
Au 11.9132 17.369 5.36091
Pd 12.3231 20.024 8.4194
Au 13.4173 17.4806 7.74101
Pd 13.4671 19.6443 5.84423
Au 12.1258 17.9635 10.2568
Pd 11.6216 20.5213 11.4379
Au 13.9023 17.6205 12.3295
Pd 14.1343 20.0971 10.6019
Au 11.7261 18.7869 13.6598
Pd 11.0898 20.5862 16.4999
Au 13.4539 19.1342 15.7912
Pd 14.8803 21.8024 14.8078
Au 11.9598 18.7129 18.3963
Pd 12.7186 20.0476 20.5712
Au 14.9908 19.6608 21.9273
Pd 11.8185 22.1681 18.895
Au 13.8504 19.4339 24.4075
Pd 14.6752 21.2531 26.2204
Au 15.4121 18.7186 26.6288
Pd 15.7677 21.5573 23.7762
Pd 10.7644 24.2186 5.5077
Au 13.3935 24.2624 5.8573
Au 11.4472 22.1989 6.97731
Pd 9.16336 24.1598 7.73592
Au 12.8507 22.4601 9.59896
Pd 11.7946 24.5856 8.06665
Au 10.1662 22.329 9.47061
Pd 8.77667 24.3821 12.4193
Au 11.232 23.2057 11.9343
Pd 10.1315 24.9504 10.1408
Au 12.1389 21.4461 14.0851
Pd 8.1724 24.7023 17.1255
Au 10.5754 23.719 16.7075
Pd 9.65481 25.4175 14.7375
Au 11.2051 25.0416 19.003
Pd 8.83845 25.9099 19.3727
Au 12.376 23.7648 21.1837
Pd 10.2636 26.4912 17.0352
Au 13.2112 21.7294 22.7873
Pd 12.9176 25.2861 23.2951
Au 13.9329 23.4366 24.8574
Pd 14.4102 26.0812 21.2268
Pd 13.5093 3.79767 8.73972
Pd 13.6964 3.6016 11.4475
Pd 15.9306 4.13958 9.91734
Pd 13.8936 3.48435 14.2154
Pd 16.1324 3.98482 12.6632
Pd 14.0906 3.39905 16.9983
Pd 16.3268 3.87981 15.4412
Pd 14.2931 3.35158 19.7735
Pd 16.5206 3.80616 18.2176
Pd 14.5119 3.49513 22.4624
Pd 16.7029 3.79343 20.9528
Pd 15.3337 8.09533 6.29239
Au 16.0704 6.48307 8.48245
Au 13.8719 5.96334 10.1067
Pd 14.2569 8.28463 11.5756
Au 16.3254 6.39671 11.3298
Pd 16.4854 8.86144 10.0101
Au 14.0637 5.8135 12.8884
Pd 14.451 8.17013 14.3521
Au 16.5239 6.2756 14.1175
Pd 16.7157 8.76333 12.816
Au 14.2585 5.70896 15.6675
Pd 14.6417 8.07945 17.1277
Au 16.7174 6.18475 16.9008
Pd 16.9131 8.66119 15.5892
Au 14.4581 5.64288 18.4569
Pd 14.8268 8.02863 19.923
Au 16.9092 6.1306 19.7048
Pd 17.0854 8.57615 18.371
Au 14.6609 5.67333 21.2394
Pd 14.9854 7.85561 22.7925
Au 17.0438 6.01361 22.5411
Pd 17.2173 8.46846 21.2307
Pd 17.3102 14.6334 3.70634
Au 16.9272 10.1467 5.30829
Au 15.6843 10.4297 7.74785
Pd 16.0836 12.8633 9.26968
Au 16.8979 11.2609 11.4797
Pd 17.2956 12.5287 6.8306
Au 14.6507 10.6367 13.0314
Pd 15.0466 13.0281 14.4984
Au 17.1158 11.1481 14.2782
Pd 17.3015 13.6321 12.9389
Au 14.841 10.5334 15.8131
Pd 15.2152 12.9346 17.2652
Au 17.2949 11.0526 17.0636
Pd 17.4978 13.5309 15.7329
Au 15.017 10.448 18.6028
Pd 15.3337 12.809 20.0827
Au 17.4251 10.9456 19.8938
Pd 17.6158 13.421 18.5548
Au 15.169 10.3021 21.4706
Pd 17.3524 13.9028 25.7223
Au 16.7193 9.70172 23.7256
Pd 16.8817 12.1848 22.3894
Pd 17.4207 19.131 3.38907
Au 18.9092 16.8015 3.10032
Au 17.6171 16.9612 5.32133
Pd 16.4063 17.2769 7.66608
Au 17.7451 14.9771 8.34595
Pd 18.2429 19.3071 7.44719
Au 16.4941 15.3101 10.7633
Pd 15.2886 15.5004 13.1933
Au 17.6941 16.0106 14.3746
Pd 16.8584 17.893 12.1656
Au 15.4112 15.4062 15.9495
Pd 15.7444 17.8274 17.4379
Au 17.8463 15.8707 17.2415
Pd 18.2142 18.2428 15.9544
Au 15.5228 15.3276 18.7432
Pd 15.9862 17.0401 22.1213
Au 17.0665 14.6806 21.0224
Pd 17.3221 17.1682 19.6818
Au 17.5746 16.3682 24.4373
Pd 18.1889 18.3117 26.3261
Au 19.1245 15.7661 26.6319
Pd 20.4107 15.876 24.2352
Pd 15.5006 21.6628 4.74391
Au 18.1627 21.2008 5.07006
Au 16.237 19.3215 5.70234
Pd 14.9892 19.6585 8.07322
Au 16.8834 19.7361 9.87173
Pd 16.7427 21.5708 7.32627
Au 15.1238 17.5754 9.97652
Pd 14.2954 19.9463 13.2369
Au 16.2782 20.2961 16.5617
Pd 16.3291 21.2501 12.0664
Au 15.6562 17.938 14.6631
Pd 12.958 22.6651 16.4973
Au 15.9617 19.8737 19.4106
Pd 14.6898 24.3832 15.3103
Au 13.8534 20.5668 17.9503
Pd 14.4018 22.0766 20.1667
Au 17.6651 19.1309 21.5665
Pd 15.3832 22.9004 17.627
Au 16.6068 18.9575 24.1705
Pd 17.384 20.8796 25.9256
Au 20.9149 17.8307 26.0276
Pd 16.5864 23.4419 25.4657
Pd 14.4568 24.4709 8.3387
Au 16.0573 23.8628 6.16526
Au 14.1237 22.0472 7.12762
Pd 12.8475 24.9666 10.5613
Au 15.5661 22.3105 9.6713
Pd 18.8652 25.0636 13.2096
Au 13.9292 22.743 12.1868
Pd 11.1143 25.8446 12.4579
Au 16.2202 23.8472 13.2039
Pd 13.931 25.5817 12.952
Au 12.1023 24.1838 14.3518
Pd 12.0637 26.8676 14.6588
Au 16.5392 26.545 12.824
Pd 14.8584 27.0288 15.0777
Au 12.7668 25.5879 16.7419
Pd 11.7599 26.4183 21.1145
Au 13.736 24.4029 18.9844
Pd 13.3649 27.0095 18.9413
Au 14.9956 23.7274 22.263
Pd 15.625 25.4997 24.0422
Au 19.222 22.9259 25.1495
Pd 17.0958 26.0271 21.901
Pd 18.1043 4.80214 8.36052
Pd 18.3624 4.58088 11.1178
Pd 20.5151 5.22581 9.56607
Pd 18.564 4.45897 13.8915
Pd 20.7836 5.05114 12.3525
Pd 18.7588 4.37001 16.6598
Pd 20.9891 4.95597 15.1304
Pd 18.9449 4.31216 19.4058
Pd 21.1791 4.90177 17.8923
Pd 19.0835 4.37648 22.0979
Pd 21.3202 4.92007 20.6344
Pd 17.7316 8.61019 7.58269
Au 17.413 6.34333 6.20045
Au 18.5207 7.02325 9.74504
Pd 18.9292 9.35358 11.2349
Au 20.9724 7.47369 10.9588
Pd 20.1849 9.03271 8.75802
Au 18.7664 6.87253 12.5599
Pd 19.1681 9.25417 14.0446
Au 21.2102 7.35997 13.7954
Pd 21.3869 9.80814 12.434
Au 18.965 6.77414 15.3472
Pd 19.3514 9.17963 16.8207
Au 21.404 7.3034 16.5793
Pd 21.6349 9.75352 15.2661
Au 19.1511 6.70643 18.1279
Pd 19.4769 9.12767 19.6248
Au 21.5568 7.28043 19.3814
Pd 21.7592 9.74469 18.0817
Au 19.2871 6.69616 20.9278
Pd 18.864 7.91369 23.3839
Au 20.9104 6.16158 23.0218
Pd 21.0771 8.59493 21.822
Pd 18.5414 12.2573 4.45474
Au 19.3551 10.6715 6.60762
Au 18.128 10.963 9.04162
Pd 18.5473 13.3496 10.5005
Au 20.595 11.4016 10.241
Pd 19.8023 13.0203 8.05381
Au 19.3416 11.715 12.6892
Pd 19.7466 14.0342 14.131
Au 21.8381 12.1071 13.8492
Pd 21.0514 13.719 11.6844
Au 19.5811 11.6379 15.5165
Pd 19.9268 14.0229 17.017
Au 22.0036 12.1713 16.7867
Pd 22.3259 14.3635 15.2226
Au 19.7039 11.5997 18.3341
Pd 19.1785 12.8571 20.8414
Au 21.2657 11.0713 20.565
Pd 21.5275 13.5125 19.3215
Au 18.9816 10.3689 22.1634
Pd 18.454 11.5746 24.5905
Au 20.6134 9.79744 24.3228
Pd 20.747 12.2789 23.081
Pd 19.5014 18.86 5.07732
Au 20.0463 14.3833 3.59091
Au 18.962 14.6283 5.94371
Pd 18.306 17.4155 9.78657
Au 20.2764 15.3513 9.54521
Pd 19.6205 16.992 7.37027
Au 18.9509 15.7317 11.9532
Pd 19.4308 18.0131 13.4784
Au 21.5451 15.9899 13.1313
Pd 20.7947 17.6784 11.0953
Au 20.2503 16.2997 15.5204
Pd 18.2947 19.3148 18.3938
Au 20.1096 17.3629 17.9594
Pd 20.9635 18.9638 15.8206
Au 19.4293 15.2894 19.5415
Pd 18.8426 16.5047 21.9783
Au 20.9944 14.7386 21.8373
Pd 21.9066 16.5276 20.0306
Au 18.6235 14.0302 23.3233
Pd 21.8272 15.3105 26.4143
Au 20.178 13.4075 25.5573
Pd 21.6231 17.6217 22.5375
Pd 18.7431 23.235 6.78083
Au 20.2613 21.0518 6.79271
Au 20.3869 19.3778 9.03038
Pd 18.4984 22.3867 13.4835
Au 18.9369 19.8658 11.5257
Pd 20.1313 22.3506 11.318
Au 17.4397 19.9667 14.0534
Pd 17.1482 22.7899 15.7059
Au 22.2335 18.6324 13.3693
Pd 20.3922 20.5953 13.7378
Au 19.0768 20.9822 16.1861
Pd 17.6707 21.9247 18.4685
Au 20.8326 20.1953 18.3078
Pd 23.5966 19.7476 15.7106
Au 20.0019 18.4162 20.454
Pd 16.8228 21.8023 21.179
Au 20.9304 20.2826 22.5282
Pd 19.2989 21.0439 20.461
Au 19.3525 18.4356 23.8319
Pd 20.0825 20.3791 25.4819
Au 22.5189 19.4521 24.5091
Pd 18.4147 21.0116 23.3884
Pd 17.1396 24.2804 8.61017
Au 22.7578 23.0523 11.3593
Au 18.7304 21.6416 9.08521
Pd 21.5375 25.801 13.7554
Au 19.7597 24.1459 9.1405
Pd 17.7521 23.3203 11.0398
Au 15.5534 24.9658 10.7863
Pd 18.2197 25.8364 10.7219
Au 17.1816 25.4553 15.2992
Pd 19.6253 26.5858 15.3651
Au 17.3927 27.9883 14.8617
Pd 17.8843 27.1602 17.3532
Au 20.2721 22.892 18.1588
Pd 20.4234 25.5701 17.7052
Au 15.4792 25.8811 17.4485
Pd 16.2167 27.1321 19.5784
Au 16.2548 24.411 19.8953
Pd 17.9144 24.524 17.7636
Au 17.6164 23.6244 22.9537
Pd 18.3752 25.4548 24.5377
Au 21.8784 22.1321 24.383
Pd 19.7005 25.5152 22.1544
Pd 19.7848 6.73207 7.33698
Pd 22.9328 5.6527 10.7966
Pd 21.3887 8.73174 6.35608
Pd 23.2032 5.53643 13.6007
Pd 25.2928 6.14142 12.0322
Pd 23.4022 5.49276 16.3563
Pd 26.2593 11.7698 16.9844
Pd 23.5583 5.52297 19.0979
Pd 25.5757 6.10618 14.8462
Pd 23.1393 6.75688 21.552
Pd 25.3074 7.40739 19.9896
Pd 18.9622 8.35441 5.23707
Au 20.5624 10.3768 4.32228
Au 22.2122 7.10976 8.49562
Pd 22.6152 9.47135 9.95334
Au 24.5532 7.53237 9.73515
Pd 23.7675 9.17023 7.57693
Au 23.4075 7.92556 12.1964
Pd 23.9049 10.2032 13.5739
Au 27.4099 10.2805 12.2512
Pd 25.0974 9.78916 11.0668
Au 23.6847 7.89904 15.0198
Pd 26.3727 10.5578 14.675
Au 25.7092 6.13755 17.5647
Pd 25.6095 12.1791 12.572
Au 23.8088 7.91658 17.8201
Pd 24.0475 10.299 16.5259
Au 25.947 8.30825 13.3589
Pd 24.2623 13.642 17.297
Au 23.3687 9.22411 20.3037
Pd 22.6616 8.06206 23.907
Au 24.8885 8.66027 22.4462
Pd 26.0282 8.46007 16.3057
Pd 21.0337 12.7346 5.57876
Au 22.9288 10.7508 5.46621
Au 21.8135 11.0861 7.79873
Pd 22.3377 13.3803 9.25908
Au 24.3773 11.4492 8.86922
Pd 23.4747 13.0317 6.82783
Au 23.1574 11.7714 11.3618
Pd 23.632 14.059 12.8371
Au 26.6645 11.7542 10.1996
Pd 24.8977 13.7209 10.4141
Au 24.3895 12.4559 14.959
Pd 22.1823 15.4792 17.6093
Au 27.0521 13.1929 14.7027
Pd 25.0532 15.0884 15.069
Au 23.6264 11.6881 19.0573
Pd 23.103 12.9929 21.5937
Au 25.6545 9.85037 18.8136
Pd 26.0421 12.8715 19.3509
Au 22.8353 10.5112 22.7403
Pd 22.368 11.6798 25.1686
Au 24.3873 9.9324 24.7311
Pd 25.1377 11.1514 21.3248
Pd 21.6482 18.7868 6.64728
Au 20.8863 16.5368 4.99321
Au 21.5747 14.9586 7.097
Pd 22.134 17.213 8.71032
Au 24.1774 15.2457 8.31131
Pd 23.3284 16.7883 6.33602
Au 22.8971 15.6315 10.7425
Pd 26.312 14.8021 12.6335
Au 27.6244 15.8894 14.8938
Pd 25.5573 16.3668 10.5618
Au 23.0041 17.0047 15.4417
Pd 24.8425 16.2951 17.5332
Au 26.8913 14.4241 17.1301
Pd 25.6072 17.7774 15.3079
Au 24.0064 14.701 19.687
Pd 23.5601 15.7805 22.0909
Au 25.7134 13.9639 21.7553
Pd 26.5627 15.5746 19.5705
Au 22.575 14.1416 24.1209
Pd 23.1167 16.8266 24.6055
Au 24.662 12.4025 23.7715
Pd 25.1078 15.0996 24.0811
Pd 21.5008 22.0485 9.02564
Au 23.1129 19.9246 8.73889
Au 21.8105 20.3402 11.227
Pd 23.0043 21.3282 13.574
Au 24.7838 17.8812 8.47136
Pd 24.429 20.9848 11.1153
Au 23.5822 18.3033 10.8935
Pd 24.8462 19.3499 13.2382
Au 26.9245 17.4709 12.8247
Pd 26.1394 18.9941 10.7796
Au 27.8057 19.7713 17.5833
Pd 23.3915 20.8965 18.2447
Au 27.4573 17.1125 17.3553
Pd 24.308 16.6925 12.9874
Au 22.7502 18.1871 17.927
Pd 21.7959 21.9864 20.325
Au 26.143 16.6347 22.0093
Pd 24.5036 17.4178 20.0087
Au 22.612 19.3473 20.4812
Pd 23.5146 21.1247 22.384
Au 24.2753 18.4701 22.584
Pd 27.0381 18.2355 19.7774
Pd 20.7927 24.9308 11.4013
Au 25.5295 22.0444 13.4078
Au 21.1312 23.2474 13.6189
Pd 22.1992 24.4503 15.9049
Au 27.322 20.1218 13.0117
Pd 26.1812 20.504 15.5235
Au 19.6013 23.892 15.6766
Pd 24.2652 22.4228 15.9338
Au 28.1001 18.6205 15.1161
Pd 23.6783 23.957 13.7265
Au 25.3393 18.9879 17.7844
Pd 25.8675 21.6231 18.0745
Au 25.2259 20.1171 20.3518
Pd 21.6935 21.77 16.0469
Au 18.772 23.7155 20.3308
Pd 18.7631 26.2749 19.7243
Au 22.7002 23.7279 22.2398
Pd 24.3487 22.6174 20.2505
Au 21.3109 24.6799 20.1244
Pd 20.1815 22.8693 22.4257
Au 21.0127 24.6576 24.2378
Pd 22.9104 23.4899 18.2087
