665
Atoms. Timestep: 20438
Pd 8.64217 8.83543 8.26943
Pd 5.91271 8.83966 12.3721
Pd 3.52525 9.0159 16.6535
Pd 3.48885 8.07499 19.1215
Pd 6.66709 8.49533 22.4806
Au 9.22809 9.98718 5.83917
Au 6.4915 9.88537 9.88931
Pd 7.13849 11.0086 7.46247
Au 3.98515 10.0491 14.1198
Pd 4.57468 11.0996 11.6352
Au 3.27019 10.7013 18.8059
Pd 3.57345 11.766 16.3148
Au 4.42806 9.47012 21.2326
Pd 4.47443 12.1258 20.7374
Au 5.48977 10.8639 23.3836
Pd 5.70549 13.4773 22.7024
Au 7.72293 12.132 4.99346
Au 5.12175 12.1439 9.12614
Pd 5.72094 13.2186 6.66434
Au 3.98156 12.7989 13.7922
Pd 4.52427 13.846 11.291
Au 3.34745 13.4447 18.5356
Pd 3.6596 14.5424 16.0524
Au 5.85619 16.2286 22.5127
Pd 4.58366 14.8816 20.4977
Au 6.55768 12.2596 25.424
Pd 6.96107 14.7959 24.6496
Au 8.97135 14.2697 3.65937
Au 5.02686 14.8948 8.77161
Pd 5.68865 15.9555 6.30462
Au 4.02128 15.5769 13.5187
Pd 4.52762 16.6062 10.9892
Au 3.45427 16.198 18.2956
Pd 3.7104 17.3408 15.818
Au 6.08908 18.9472 22.2817
Pd 4.70447 17.6448 20.2736
Au 8.20236 16.0182 26.6704
Pd 7.27916 17.495 24.4937
Au 6.312 14.2916 4.24527
Au 5.07302 17.6269 8.44229
Pd 7.01523 18.3273 6.47936
Au 4.06033 18.3305 13.2476
Pd 4.59932 19.3333 10.7018
Au 3.63 19.0128 18.101
Pd 3.88361 20.1731 15.6474
Au 4.90519 20.4492 20.1143
Pd 3.95078 21.8035 17.9189
Au 8.75808 18.6762 26.4084
Pd 7.69335 20.1673 24.1397
Au 8.40435 20.7001 6.63095
Au 5.76923 21.758 10.7162
Pd 7.66683 16.596 4.43116
Au 5.3778 23.4069 12.8822
Pd 7.63786 22.0946 12.6174
Au 4.27514 22.9019 15.4107
Pd 8.25278 21.6453 17.0428
Au 6.45535 21.6685 22.1293
Pd 5.36817 23.1412 20.0225
Au 9.5208 21.1938 25.8022
Pd 8.25799 22.8022 23.8811
Pd 10.8055 7.89387 6.71416
Pd 8.01384 7.71314 10.6807
Pd 10.2035 6.68603 9.07935
Pd 5.34209 7.80728 14.8268
Pd 7.41082 6.65749 13.1101
Pd 5.47362 7.27582 17.4362
Pd 7.52362 6.39854 15.7887
Pd 5.69942 7.18355 20.2489
Pd 7.68605 6.25541 18.5896
Pd 8.92044 7.4973 23.6021
Pd 7.92239 6.23219 21.3881
Pd 11.9402 10.0054 5.2836
Au 13.4133 7.83696 5.90222
Au 10.9982 10.2473 7.9217
Pd 8.89278 11.2244 9.55745
Au 10.3846 9.03948 10.398
Pd 13.6916 10.2325 7.34857
Au 8.29201 10.0831 12.0073
Pd 6.33159 11.2662 13.6857
Au 7.70965 8.95293 14.4787
Pd 10.7177 11.4109 11.762
Au 5.78348 10.1582 16.181
Pd 5.64649 12.0487 18.2449
Au 7.82378 8.66723 17.2324
Pd 8.15002 11.3773 15.8916
Au 5.71188 9.50421 18.887
Pd 6.8494 10.8698 21.1173
Au 8.01387 8.55713 20.0884
Pd 8.16929 10.9393 18.7334
Au 9.11734 9.85376 22.379
Pd 10.1416 11.0653 24.6593
Au 7.6796 9.86198 24.6515
Pd 11.5616 11.1516 22.3331
Pd 10.4705 12.1311 4.47546
Au 13.2528 12.1158 3.98611
Au 9.49848 12.3775 7.06396
Pd 7.44904 13.4627 8.71767
Au 11.3148 12.6166 9.2559
Pd 12.248 12.4048 6.5622
Au 6.88028 12.3542 11.1816
Pd 6.37203 14.1072 13.2949
Au 8.71585 12.5148 13.3551
Pd 9.27055 13.6598 10.8438
Au 5.92833 13.041 15.7638
Pd 5.71897 14.7412 17.9865
Au 8.17105 13.3931 17.7751
Pd 8.34633 14.3586 15.3071
Au 6.90491 13.4199 20.2438
Pd 8.21884 14.7177 22.2755
Au 9.34861 12.2874 21.0146
Pd 9.45702 14.7482 19.8459
Au 8.02469 12.2375 23.3476
Pd 9.05718 13.4497 25.6663
Au 12.6816 12.2466 24.718
Pd 10.518 13.4802 23.4008
Pd 10.396 16.5973 3.8364
Au 11.7804 14.2817 3.23119
Au 8.02548 14.5671 6.2261
Pd 7.43073 16.2734 8.32032
Au 9.82779 14.8213 8.34554
Pd 10.7594 14.5658 5.71989
Au 6.86849 15.1791 10.8052
Pd 6.39789 16.8928 12.9736
Au 8.81371 15.433 12.837
Pd 9.29257 16.5683 10.376
Au 5.98059 15.8329 15.4767
Pd 5.78825 17.4666 17.714
Au 8.20901 16.0683 17.5012
Pd 8.40175 17.113 14.9651
Au 6.99741 16.1401 20.0254
Pd 8.37534 17.4071 22.0335
Au 10.7661 15.9535 22.1021
Pd 9.50461 17.4279 19.4992
Au 9.53023 15.8672 24.4683
Pd 10.7223 16.8741 26.7519
Au 11.667 14.5593 25.7917
Pd 12.1049 17.0546 24.5131
Pd 9.10595 18.9264 4.65567
Au 11.8196 18.9366 3.99509
Au 9.40427 16.9374 6.41905
Pd 8.78747 18.6914 8.49416
Au 11.1836 17.238 8.48133
Pd 10.8647 19.2847 6.64522
Au 6.87679 17.9638 10.4288
Pd 6.44575 19.6525 12.6244
Au 8.81872 18.2465 12.4556
Pd 10.6248 19.0455 10.586
Au 6.00131 18.6091 15.1796
Pd 5.97409 20.2724 17.502
Au 8.17856 18.7658 17.1153
Pd 8.35918 19.8404 14.5966
Au 7.10312 18.8564 19.702
Pd 8.60927 20.0582 21.5659
Au 10.9696 18.6082 21.4663
Pd 9.61587 20.0727 18.9459
Au 9.8856 18.5644 24.0351
Pd 11.4862 19.3924 26.1514
Au 14.0054 21.1173 27.014
Pd 12.4956 19.6281 23.5628
Pd 7.79364 22.3606 8.79801
Au 10.5331 21.2694 4.84646
Au 6.35123 20.032 8.5722
Pd 4.28438 21.0457 13.0983
Au 10.2072 21.0577 8.68678
Pd 9.90177 23.0289 6.86328
Au 8.21496 20.3868 10.6099
Pd 6.83236 24.0363 14.9598
Au 10.1545 20.778 12.7993
Pd 7.32376 24.0536 10.9398
Au 6.27531 21.4164 14.9676
Pd 8.96139 22.4576 14.7245
Au 10.4237 20.2979 16.3005
Pd 12.4219 21.3512 14.814
Au 7.39839 21.6313 19.5605
Pd 7.05147 24.2212 21.9265
Au 10.3172 21.1622 23.2941
Pd 6.17496 23.1801 17.4371
Au 10.7551 23.838 23.4817
Pd 9.53519 25.3178 21.4947
Au 12.102 21.9761 25.287
Pd 9.12562 22.7201 21.3645
Pd 12.4778 5.82896 7.53559
Pd 9.58002 5.5936 11.4772
Pd 11.8394 4.62966 9.87816
Pd 9.62466 5.42609 14.1986
Pd 11.7797 4.46365 12.6286
Pd 9.73565 5.31211 16.9735
Pd 11.8314 4.344 15.4164
Pd 9.8967 5.22722 19.7706
Pd 11.9418 4.25173 18.2106
Pd 10.13 5.2586 22.4776
Pd 12.1059 4.22594 20.9523
Pd 14.743 9.99174 4.79893
Au 14.9343 5.6667 6.39628
Au 12.5427 8.1319 8.80417
Pd 12.7826 10.4461 10.1792
Au 11.928 6.89694 11.2731
Pd 15.1125 7.99835 7.96582
Au 9.78178 7.87928 12.8527
Pd 10.1404 10.2755 14.2606
Au 12.0178 6.75343 14.0804
Pd 12.2232 9.2616 12.6866
Au 9.91409 7.73104 15.6373
Pd 10.27 10.096 17.0791
Au 12.1438 6.6338 16.888
Pd 12.3369 9.12882 15.5127
Au 10.0695 7.6112 18.4498
Pd 10.4536 9.96585 19.9389
Au 12.3124 6.54432 19.7272
Pd 12.4921 8.9945 18.3483
Au 10.2841 7.5664 21.2821
Pd 13.769 9.97762 23.5869
Au 11.3155 8.73395 23.6571
Pd 12.6674 8.88783 21.2291
Pd 14.6553 14.2551 2.91672
Au 16.1393 12.1027 3.64663
Au 15.0148 12.3873 6.14627
Pd 13.9898 12.6815 8.75238
Au 15.3715 10.4762 9.49582
Pd 16.3865 14.5516 5.0156
Au 13.1169 12.7965 11.497
Pd 11.07 13.8065 13.0715
Au 12.5536 11.6628 14.0706
Pd 15.7037 12.9891 10.9403
Au 10.507 12.7037 15.6863
Pd 10.7441 14.8549 17.4456
Au 12.677 11.4996 16.9414
Pd 12.8937 14.0757 15.569
Au 10.6278 12.4019 18.5833
Pd 11.7894 13.6119 20.964
Au 12.8536 11.3259 19.8493
Pd 13.0615 13.811 18.4638
Au 14.0103 12.4126 22.2904
Pd 14.4954 14.2335 25.6517
Au 15.5219 11.8955 24.5915
Pd 15.7981 14.318 23.2475
Pd 13.2493 16.6051 3.37608
Au 16.0901 16.5661 2.98703
Au 13.5399 14.5694 5.30517
Pd 12.5499 14.8483 7.87488
Au 15.3194 14.8423 7.5292
Pd 15.0201 16.9144 5.45027
Au 11.6431 15.0261 10.534
Pd 11.2496 16.8235 12.4653
Au 13.4359 15.0868 12.912
Pd 14.3029 15.1635 10.1126
Au 10.755 15.69 14.9287
Pd 10.673 17.542 16.9733
Au 13.2332 16.3954 17.2966
Pd 13.1148 17.0231 14.7145
Au 11.9469 16.0999 19.6854
Pd 13.2889 17.2268 22.1166
Au 14.2369 14.8937 20.9151
Pd 14.431 17.3742 19.6924
Au 12.9984 14.7205 23.4053
Pd 13.5456 16.5458 26.7474
Au 16.3356 16.1842 26.6424
Pd 14.8657 16.6271 24.3686
Pd 13.2543 21.2235 4.26707
Au 14.6904 18.9409 3.56979
Au 12.1801 16.9263 5.85252
Pd 12.6589 19.6372 8.74188
Au 13.9684 17.2189 7.9704
Pd 13.6177 19.2435 6.08357
Au 12.9237 17.5738 10.489
Pd 12.4734 19.4513 12.6472
Au 14.5121 17.7003 12.5288
Pd 12.0304 21.433 10.7759
Au 10.8132 18.5131 14.4608
Pd 12.1032 21.2881 17.9797
Au 13.2459 19.1994 16.2437
Pd 15.5125 22.8928 14.4376
Au 12.074 18.7313 18.9057
Pd 13.5404 19.776 21.023
Au 15.1906 19.1108 23.0657
Pd 11.2517 21.1763 20.6519
Au 14.0401 18.9096 25.6031
Pd 14.6798 21.3972 24.4251
Au 15.5794 18.6214 27.6515
Pd 15.489 21.6687 21.7574
Pd 12.032 23.5769 5.19807
Au 14.6267 23.4763 4.50872
Au 12.3285 21.6191 6.8821
Pd 9.26883 24.6109 8.9772
Au 11.7331 23.433 8.92177
Pd 13.9726 23.9688 7.09604
Au 9.69225 22.7534 10.8584
Pd 9.3022 25.0494 14.4197
Au 11.1761 26.2328 9.76026
Pd 12.4028 24.3802 11.3058
Au 14.7731 20.217 13.8562
Pd 8.67852 24.4365 16.9413
Au 9.9713 22.8528 18.7898
Pd 10.8766 23.0831 16.2608
Au 12.5152 24.1332 18.0432
Pd 7.83462 24.3349 19.4494
Au 11.6228 23.9099 20.7508
Pd 11.1852 25.7665 16.2479
Au 12.8517 22.1879 22.5714
Pd 12.3808 25.7394 22.567
Au 13.6294 24.1009 24.3248
Pd 13.0597 26.0694 20.0206
Pd 14.2643 3.91266 8.34641
Pd 14.0227 3.63648 11.0961
Pd 16.4283 3.54673 9.88139
Pd 13.9654 3.44841 13.8966
Pd 16.3207 3.6652 12.5795
Pd 14.0402 3.32924 16.7024
Pd 16.343 3.69661 15.2917
Pd 14.1745 3.26824 19.4594
Pd 16.4529 3.65037 18.0188
Pd 12.4561 6.49516 22.5102
Pd 16.5795 3.64137 20.7331
Pd 16.2634 7.82684 5.46327
Au 16.5349 5.76279 8.46944
Au 14.1354 6.0464 9.74796
Pd 14.3712 8.3236 11.1239
Au 16.5272 5.9342 11.1936
Pd 16.863 8.31387 9.97981
Au 14.1777 5.81319 12.5722
Pd 14.4451 8.15139 13.9815
Au 16.5897 6.04625 13.9485
Pd 16.7698 8.4658 12.6595
Au 14.2655 5.65086 15.3693
Pd 14.5783 7.99757 16.8018
Au 16.687 6.02181 16.7164
Pd 16.8733 8.47351 15.3962
Au 14.3877 5.55054 18.1905
Pd 14.7237 7.84566 19.6693
Au 16.7893 5.95823 19.5238
Pd 16.9942 8.39044 18.1762
Au 14.5233 5.38554 21.0761
Pd 14.8686 7.69739 22.4785
Au 16.9282 5.85875 22.3257
Pd 17.1223 8.28377 21.0212
Pd 17.5225 14.2548 2.62697
Au 17.6301 9.94073 4.38787
Au 16.4785 10.188 6.90298
Pd 16.7612 12.6632 8.3936
Au 17.2109 10.853 11.4245
Pd 17.8424 12.3525 5.85768
Au 14.6721 10.6562 12.4862
Pd 15.0148 13.0318 13.9193
Au 17.0715 10.9458 14.1001
Pd 17.5275 13.3723 12.8875
Au 14.7506 10.485 15.3918
Pd 15.1023 12.8138 16.8528
Au 17.1937 10.8569 16.8445
Pd 17.4164 13.361 15.557
Au 14.9071 10.3092 18.2575
Pd 15.2717 12.6111 19.7511
Au 17.3335 10.7305 19.6641
Pd 17.5449 13.1933 18.3155
Au 15.0777 10.1291 21.1634
Pd 17.3014 13.8223 25.5039
Au 16.5846 9.55409 23.4885
Pd 16.8023 12.0082 22.1295
Pd 17.4643 18.8643 3.35842
Au 18.9104 16.5587 2.7967
Au 17.8448 16.8915 5.19483
Pd 16.767 17.2044 7.6566
Au 18.1545 14.8286 7.26753
Pd 18.1939 19.5337 7.80991
Au 17.0783 15.1763 9.7753
Pd 16 15.4331 12.3213
Au 17.7692 15.8853 14.3295
Pd 17.2644 17.8726 12.2825
Au 15.3129 15.3001 15.5228
Pd 15.7628 17.7072 17.3801
Au 17.7734 15.6964 17.064
Pd 18.1798 18.2556 15.9485
Au 15.4825 15.109 18.4167
Pd 16.078 16.7569 21.9169
Au 17.0528 14.476 20.7471
Pd 17.3619 16.9814 19.5005
Au 17.6613 16.2022 24.206
Pd 18.2152 18.1382 27.2744
Au 19.1728 15.6667 26.4075
Pd 20.4736 15.6577 23.9266
Pd 16.1216 21.2553 3.99385
Au 19.3732 19.183 5.33454
Au 16.4456 19.2539 5.75034
Pd 15.3552 19.5962 8.24515
Au 17.0807 20.0259 10.2846
Pd 16.7382 22.0102 8.40256
Au 15.7015 17.5818 10.106
Pd 14.4683 20.0777 10.945
Au 16.0587 20.3186 16.2295
Pd 16.365 21.7478 12.1614
Au 15.8349 17.8665 14.7521
Pd 14.2764 22.3451 16.8457
Au 16.251 19.2307 20.5758
Pd 14.3903 25.1501 13.1239
Au 14.5359 19.9082 18.4887
Pd 13.681 22.296 19.8036
Au 17.9995 18.6168 22.7902
Pd 15.2554 25.0069 16.1473
Au 16.7851 18.6188 25.1995
Pd 16.6188 20.9073 26.4862
Au 21.9779 15.0715 26.1012
Pd 15.5348 23.2709 26.0397
Pd 16.2933 24.7348 8.67279
Au 16.6283 23.774 6.20184
Au 15.0519 21.573 6.35734
Pd 15.0285 23.7056 10.7613
Au 14.1118 22.0071 9.01006
Pd 15.1167 27.7325 13.0215
Au 13.6368 22.3839 12.647
Pd 9.69627 25.2033 11.7517
Au 11.4915 25.3215 7.21566
Pd 11.6639 25.9336 13.4782
Au 11.0585 23.2946 13.3265
Pd 16.2193 27.3219 15.345
Au 13.1105 26.9833 11.4863
Pd 17.6398 26.9049 13.0131
Au 13.5563 26.9153 14.9743
Pd 10.3906 25.5163 18.902
Au 15.0867 24.4748 18.751
Pd 13.5187 26.5427 17.5125
Au 14.3757 24.2331 21.5336
Pd 15.1434 26.0665 23.1985
Au 18.181 23.0859 25.3293
Pd 15.7886 26.3449 20.5908
Pd 18.7047 4.30092 8.34366
Pd 18.7219 4.23608 11.0788
Pd 21.0247 4.98635 9.54545
Pd 18.6928 4.23987 13.8054
Pd 21.0526 4.89383 12.2868
Pd 18.7573 4.19117 16.5306
Pd 21.0784 4.80878 15.0333
Pd 18.8528 4.12354 19.2611
Pd 21.1532 4.71317 17.7861
Pd 18.9456 4.159 21.9484
Pd 21.2146 4.685 20.5359
Pd 17.9909 8.01476 7.5625
Au 17.7945 5.68797 6.16119
Au 18.9278 6.59702 9.70464
Pd 19.2266 9.04807 11.1854
Au 21.2909 7.30349 10.9295
Pd 20.4603 8.7631 8.71384
Au 18.9182 6.61455 12.4606
Pd 19.1819 9.06243 13.9258
Au 21.3084 7.23045 13.7207
Pd 21.5579 9.72481 12.4394
Au 18.9959 6.58951 15.222
Pd 19.2939 8.97628 16.6837
Au 21.4028 7.12278 16.4972
Pd 21.6162 9.60417 15.201
Au 19.0956 6.51157 17.9954
Pd 19.3949 8.8941 19.4828
Au 21.4896 7.04029 19.2997
Pd 21.7127 9.49388 17.9971
Au 19.1799 6.47608 20.7857
Pd 18.7135 7.72638 23.2275
Au 20.7419 5.93281 22.9208
Pd 20.9613 8.36089 21.7191
Pd 18.9938 12.1004 3.41058
Au 19.3926 10.1737 6.54338
Au 18.3017 10.4971 8.99426
Pd 18.6196 13.0637 10.4661
Au 20.7365 11.2676 10.2129
Pd 19.6761 12.6918 8.03748
Au 19.5309 11.5429 12.6557
Pd 19.8294 13.9616 14.1266
Au 21.8991 12.0976 13.8981
Pd 21.0912 13.7098 11.6693
Au 19.5219 11.4576 15.3932
Pd 19.8732 13.7722 16.8927
Au 21.9782 11.9218 16.713
Pd 22.2588 14.3385 15.4611
Au 19.6281 11.3384 18.1749
Pd 19.1175 12.6207 20.6097
Au 21.1993 10.8038 20.425
Pd 21.5175 13.1983 19.1115
Au 18.8715 10.1657 21.9815
Pd 18.3307 11.4508 24.3795
Au 20.4431 9.59863 24.1864
Pd 20.6508 12.0412 22.8829
Pd 21.8271 18.5882 6.58341
Au 20.3164 14.272 2.42833
Au 19.2295 14.5249 4.78015
Pd 18.4935 17.5448 9.83652
Au 20.049 15.2411 9.46449
Pd 19.6222 17.1778 7.31845
Au 18.9728 15.612 11.9173
Pd 19.6523 17.8882 13.5906
Au 21.6144 15.9218 13.2772
Pd 21.0021 17.4576 11.1406
Au 20.1772 16.2229 15.6962
Pd 17.7025 19.6112 18.3491
Au 19.7052 17.542 18.0959
Pd 20.8443 18.9171 15.9053
Au 19.4119 15.0483 19.2793
Pd 18.9467 16.3055 21.699
Au 20.993 14.4397 21.5044
Pd 21.3367 16.8753 20.2541
Au 18.5857 13.8603 23.0645
Pd 23.9585 13.3009 25.8371
Au 20.1246 13.2809 25.3381
Pd 20.9461 18.1044 22.6752
Pd 18.0356 21.5319 6.03095
Au 20.5859 21.0039 7.03386
Au 20.5911 19.1229 9.03583
Pd 18.3654 22.6838 14.0131
Au 19.3178 19.6491 11.5532
Pd 19.9518 22.327 11.8396
Au 17.6167 20.0337 13.8351
Pd 16.9909 22.8575 16.5585
Au 22.3119 18.6804 13.3985
Pd 20.3538 20.6297 13.8551
Au 18.8199 20.9155 16.1658
Pd 18.8011 22.3239 18.5981
Au 20.4639 20.2429 18.3718
Pd 23.4328 19.651 15.9024
Au 19.354 18.858 20.483
Pd 16.201 21.875 18.9465
Au 19.8995 20.5667 22.9171
Pd 18.0246 21.1789 20.9378
Au 19.7033 18.0016 25.0843
Pd 19.1245 20.5151 25.6228
Au 21.7136 19.9298 24.7799
Pd 17.2721 21.0718 23.7459
Pd 17.7817 23.2587 10.5105
Au 22.5627 23.1371 11.7112
Au 19.3423 21.5026 9.33079
Pd 19.6191 23.6602 16.3538
Au 18.7834 23.721 7.90691
Pd 16.8404 24.4722 12.6181
Au 13.6911 25.5784 9.17807
Pd 15.6722 26.2942 10.9225
Au 20.2427 25.9401 15.0606
Pd 18.4795 27.0278 16.8025
Au 19.5044 24.9683 12.5954
Pd 13.0024 24.1083 15.1079
Au 21.4436 23.1436 18.3969
Pd 22.2808 24.526 16.2618
Au 17.6992 25.1269 15.0727
Pd 16.1209 26.9291 18.0269
Au 16.9898 23.8371 20.6313
Pd 17.7462 24.8134 18.0793
Au 16.2958 23.6864 23.4985
Pd 17.7915 25.7103 22.3389
Au 20.7457 22.5409 24.5371
Pd 20.4224 25.69 17.9801
Pd 20.2006 6.39737 7.30031
Pd 23.3434 5.64519 10.7943
Pd 21.6133 8.55584 6.2887
Pd 23.3876 5.49317 13.544
Pd 25.5781 6.28 12.1257
Pd 23.4553 5.35565 16.2894
Pd 25.9385 11.8895 17.4354
Pd 23.5072 5.29733 19.0428
Pd 25.6903 6.0872 14.8487
Pd 23.0151 6.4953 21.516
Pd 25.2417 7.13153 20.0273
Pd 19.1475 7.82521 5.18491
Au 20.5288 9.95105 4.14408
Au 22.5881 7.04854 8.48671
Pd 22.8033 9.47964 9.98598
Au 24.8386 7.72623 9.81744
Pd 23.8925 9.27288 7.58188
Au 23.6241 7.97394 12.2252
Pd 23.9558 10.2642 13.6893
Au 25.233 10.043 11.1869
Pd 24.2251 11.6457 8.94169
Au 23.7259 7.80776 15.0017
Pd 26.3238 10.6561 15.038
Au 25.7275 5.96092 17.5814
Pd 25.6896 12.201 12.858
Au 23.7957 7.69557 17.795
Pd 24.0558 10.0987 16.5172
Au 26.0098 8.4846 13.5109
Pd 23.8985 13.7552 17.6431
Au 23.297 8.93757 20.2597
Pd 22.4742 7.82441 23.8567
Au 24.7522 8.37082 22.4815
Pd 26.0767 8.30073 16.3362
Pd 20.7082 12.3695 5.60093
Au 21.7352 12.1346 3.19453
Au 21.8561 10.9854 7.74721
Pd 22.2001 13.4464 9.18578
Au 23.2618 13.149 6.64747
Pd 22.0822 14.4452 4.49428
Au 23.1924 11.8504 11.4433
Pd 23.6725 14.0745 13.0559
Au 22.8914 10.7665 5.30372
Pd 25.0013 13.6782 10.6887
Au 24.3392 12.5001 15.2386
Pd 21.8111 15.6107 17.8586
Au 26.9027 13.3037 15.1667
Pd 24.913 15.1661 15.3779
Au 23.6295 11.3477 18.943
Pd 23.1073 12.6209 21.3497
Au 25.6671 9.50552 18.7855
Pd 25.4651 13.1401 19.8536
Au 22.7373 10.2493 22.6594
Pd 22.2048 11.4743 25.0564
Au 24.1887 9.69273 24.7548
Pd 25.1113 10.7434 21.2146
Pd 23.0324 19.8435 8.61802
Au 20.7736 16.8015 4.81886
Au 21.0726 14.8354 6.96509
Pd 22.1239 16.864 8.67248
Au 24.2852 14.9739 8.44559
Pd 23.2053 16.2368 6.29434
Au 23.0125 15.553 10.8539
Pd 26.2631 14.8858 12.9999
Au 27.518 15.9185 15.5219
Pd 25.5694 16.372 10.7257
Au 22.8531 16.9983 15.5974
Pd 24.483 16.4062 17.8808
Au 26.5224 14.5411 17.6471
Pd 25.438 17.7873 15.7447
Au 23.44 15.0037 20.0484
Pd 22.915 16.2347 22.4225
Au 25.0368 14.389 22.2685
Pd 26.0409 15.8266 20.0646
Au 22.5308 13.8457 23.7279
Pd 22.4164 17.3735 24.8597
Au 24.6422 12.0356 23.604
Pd 24.3794 15.6143 24.5715
Pd 21.8994 22.1801 9.24674
Au 25.4838 19.9377 9.2774
Au 21.8879 20.4064 11.2436
Pd 22.9509 21.3392 13.7327
Au 24.6561 17.6151 8.38381
Pd 24.4543 21.0488 11.4591
Au 23.6815 18.3561 10.8625
Pd 24.9575 19.4321 13.6414
Au 26.9273 17.4483 13.4682
Pd 26.2482 18.8814 11.4398
Au 27.9139 18.6395 15.7352
Pd 25.0119 19.0941 18.137
Au 27.1191 17.2251 17.9293
Pd 24.3112 16.7949 13.1404
Au 22.4254 18.2836 18.1145
Pd 20.6685 21.8845 20.6654
Au 25.5247 17.0505 22.4439
Pd 24.0031 17.6969 20.318
Au 22.0821 19.6049 20.6522
Pd 22.5372 21.3998 22.6691
Au 23.6288 18.9027 22.8746
Pd 26.5504 18.4976 20.2688
Pd 18.181 25.8101 10.4208
Au 23.8129 23.9447 14.0948
Au 20.362 24.2407 10.0511
Pd 23.8875 22.2345 16.1386
Au 26.1382 23.2706 16.2048
Pd 25.6188 21.7493 18.4146
Au 21.1423 23.4233 14.0679
Pd 24.0411 23.8942 18.1716
Au 25.5835 22.049 13.8267
Pd 26.0363 20.5319 15.9777
Au 27.5266 19.8661 18.113
Pd 23.0795 20.9791 18.4125
Au 24.6811 20.3871 20.6677
Pd 21.41 21.6177 16.1497
Au 19.608 24.3492 20.2072
Pd 18.3868 26.681 19.7816
Au 21.5299 23.9419 22.2905
Pd 23.2869 22.7166 20.4422
Au 20.3431 26.3005 21.7316
Pd 18.8549 23.1109 22.5715
Au 19.7379 25.0378 24.0635
Pd 22.1779 25.1569 19.9638
