665
Atoms. Timestep: 20437
Pd 8.70229 8.63935 8.2616
Pd 5.8797 8.593 12.2268
Pd 3.12385 8.6387 16.0791
Pd 3.91217 8.9304 18.7218
Pd 7.23383 8.22888 22.4518
Au 9.67713 9.76129 5.9375
Au 6.68435 9.77009 9.77536
Pd 7.63708 11.0085 7.41859
Au 3.83066 9.68281 13.6526
Pd 4.72945 10.927 11.2991
Au 3.01862 11.0059 17.2921
Pd 1.84241 10.8945 14.929
Au 5.14259 9.59591 21.3473
Pd 5.26769 12.1933 22.0952
Au 4.14638 14.1265 19.3484
Pd 7.71439 13.41 22.0677
Au 8.65291 12.2268 5.14605
Au 5.61006 12.1673 8.8827
Pd 6.62423 13.4471 6.60272
Au 2.69261 12.0778 12.6129
Pd 3.68844 13.3754 10.3508
Au 2.9885 13.7058 16.977
Pd 1.88584 13.6825 14.5634
Au 4.48059 16.7978 19.4575
Pd 4.09358 11.4744 19.7185
Au 8.57786 9.13791 24.8118
Pd 5.49011 14.815 21.5699
Au 9.3957 16.6826 3.37997
Au 4.65109 14.6627 8.05357
Pd 5.70821 15.9282 5.82971
Au 2.82684 14.9532 12.3559
Pd 3.9236 16.2249 10.1679
Au 3.25565 16.4782 16.9519
Pd 2.14634 16.5083 14.4726
Au 5.68331 17.4305 21.8201
Pd 5.50109 14.9269 17.115
Au 10.6339 12.3269 26.4108
Pd 7.51106 18.2635 23.606
Au 7.66911 14.6987 4.35536
Au 4.96582 17.4739 7.92541
Pd 6.16533 18.6903 5.77172
Au 3.17695 17.7873 12.2838
Pd 4.34288 19.0278 10.1176
Au 3.66938 19.2217 16.8325
Pd 2.49461 19.2731 14.402
Au 4.92241 19.4832 19.2414
Pd 5.99334 21.9171 19.5967
Au 8.58895 20.788 23.0415
Pd 6.43088 19.9638 21.5496
Au 7.86869 20.7534 6.32282
Au 4.84191 21.7433 10.1535
Pd 6.79549 17.1476 3.68075
Au 5.27268 23.0851 14.942
Pd 6.36507 21.7113 12.6042
Au 4.26677 23.2229 12.4113
Pd 10.3767 21.9207 18.6411
Au 7.12062 22.6188 21.8936
Pd 8.39007 21.035 20.1432
Au 11.0152 21.4092 23.9485
Pd 9.8756 22.9329 21.7777
Pd 10.7561 7.32437 6.7469
Pd 7.86262 7.48008 10.6974
Pd 9.81158 6.33706 9.1108
Pd 5.1359 7.49169 14.6475
Pd 7.14938 6.34805 13.1254
Pd 5.50966 7.36421 17.314
Pd 7.43986 6.20084 15.7978
Pd 6.00264 7.48352 19.963
Pd 7.84442 6.12656 18.4669
Pd 11.8314 7.9926 23.4988
Pd 8.17283 6.06737 21.1133
Pd 11.3531 11.7001 4.87069
Au 12.3775 9.19138 5.54662
Au 11.3056 9.5012 8.13387
Pd 9.15273 10.9665 9.70989
Au 10.282 8.69821 10.533
Pd 12.9515 11.4299 7.07579
Au 8.27287 9.83334 12.1277
Pd 6.24812 10.9446 13.6588
Au 7.48603 8.66883 14.5702
Pd 10.7154 11.0796 12.1383
Au 5.41661 9.80951 16.1431
Pd 5.45397 12.2459 17.3744
Au 7.90389 8.56189 17.2965
Pd 7.83455 11.0853 16.1583
Au 6.25771 10.0288 18.8754
Pd 7.58929 10.7912 21.3293
Au 8.40896 8.54577 19.9927
Pd 8.64225 11.2564 18.8177
Au 9.69686 9.46539 22.4935
Pd 11.5602 12.9456 23.8946
Au 6.55792 13.0817 24.4003
Pd 12.2213 10.5548 22.4477
Pd 10.3542 14.1995 4.11736
Au 13.0119 13.668 3.78562
Au 10.2094 11.9953 7.38257
Pd 8.11379 13.3138 8.88827
Au 11.8105 11.7183 9.70186
Pd 11.9162 13.9463 6.35858
Au 7.1351 12.1388 11.2376
Pd 5.09216 13.3275 12.6736
Au 8.7231 12.2107 13.7329
Pd 9.62693 13.3015 11.2683
Au 4.13698 12.1046 14.9807
Pd 5.81778 17.6007 17.2258
Au 7.98769 13.6467 17.3905
Pd 6.59031 13.3341 15.0558
Au 6.50196 12.7895 19.7495
Pd 8.96375 11.7721 24.1177
Au 10.0504 12.0646 21.5646
Pd 9.06303 13.9428 19.782
Au 6.53369 10.4937 23.7472
Pd 8.42584 13.7959 26.1681
Au 13.259 11.8022 25.949
Pd 12.572 13.1098 21.3599
Pd 11.2324 18.6687 4.06204
Au 12.0465 16.2001 3.14739
Au 9.18446 14.4727 6.61344
Pd 7.1425 15.7666 8.09586
Au 10.7466 14.2608 8.94515
Pd 10.9152 16.4631 5.64047
Au 6.09668 14.55 10.3582
Pd 5.34618 16.1377 12.5429
Au 7.60142 14.5245 12.7692
Pd 8.64202 15.6606 10.4243
Au 4.25805 14.8968 14.7558
Pd 7.14832 19.8532 17.7284
Au 8.4692 16.7904 17.2615
Pd 6.84811 16.0761 15.0057
Au 6.88235 15.4818 19.2866
Pd 8.08045 16.1245 21.6237
Au 10.6021 14.9205 21.683
Pd 9.87841 16.5672 19.555
Au 11.0054 14.8564 25.8261
Pd 11.3363 17.394 25.7995
Au 12.9129 13.9952 27.412
Pd 8.69938 16.5516 25.5772
Pd 8.54724 19.131 4.29371
Au 10.4172 21.1039 4.95357
Au 8.23499 16.9633 5.86615
Pd 7.60436 18.5469 8.04993
Au 9.76033 16.7856 8.18453
Pd 10.0316 18.9877 6.56672
Au 6.4435 17.3506 10.275
Pd 5.75923 18.9048 12.503
Au 7.93451 17.2797 12.6678
Pd 9.09988 18.3976 10.3858
Au 4.57721 17.6305 14.7372
Pd 7.78448 22.3638 17.7018
Au 9.3197 19.7577 16.2374
Pd 7.11609 18.7301 15.0411
Au 7.23096 18.0792 19.6709
Pd 9.07061 18.702 21.4556
Au 9.96394 17.1226 23.3525
Pd 9.7066 19.1744 18.833
Au 9.21984 14.522 23.8666
Pd 6.75888 15.6651 23.8682
Au 13.722 21.2081 24.2098
Pd 13.4464 19.9619 21.5709
Pd 7.18488 22.2266 8.5187
Au 9.73152 22.7455 6.93481
Au 5.4994 20.2081 7.93439
Pd 3.67768 20.5649 12.2823
Au 9.33879 20.6108 8.66106
Pd 8.70867 22.1801 10.9216
Au 6.96433 20.1299 10.3161
Pd 8.77474 24.8357 11.6176
Au 8.41114 19.9872 12.8112
Pd 8.71793 22.9433 13.5485
Au 4.97983 20.3447 14.6766
Pd 7.38639 21.3949 15.2295
Au 11.7861 20.5347 16.4707
Pd 10.6409 20.8124 13.9621
Au 8.31088 23.7641 19.8583
Pd 9.45056 24.4757 17.6089
Au 10.9286 20.6466 21.1789
Pd 2.96531 21.9393 14.4618
Au 9.63835 19.2659 25.0105
Pd 11.9957 18.9114 23.5165
Au 14.898 23.9049 23.1422
Pd 11.1029 24.3922 19.7717
Pd 11.7611 4.92667 7.48275
Pd 9.14388 5.23679 11.5471
Pd 11.1763 4.22054 9.9522
Pd 9.43099 5.09602 14.2338
Pd 11.4448 4.05648 12.6284
Pd 10.2757 7.31088 18.4117
Pd 9.80407 4.97521 16.8974
Pd 10.1559 4.86366 19.5331
Pd 12.2076 3.78438 17.9761
Pd 12.717 5.79598 22.202
Pd 10.3247 4.75714 22.137
Pd 14.0496 11.1785 4.54276
Au 13.4299 6.73214 6.3315
Au 12.4394 6.93184 8.90582
Pd 12.9841 9.11199 10.4057
Au 11.4946 6.49272 11.4007
Pd 14.0342 8.90518 7.79712
Au 9.49985 7.54293 12.9879
Pd 9.91103 9.93295 14.5846
Au 11.8481 6.37735 14.106
Pd 11.9313 8.87622 12.9252
Au 9.84661 7.41465 15.7277
Pd 10.3576 9.81309 17.288
Au 12.2292 6.23043 16.8007
Pd 12.3053 8.73128 15.6388
Au 10.5895 7.18275 21.1003
Pd 10.8043 9.77878 20.0021
Au 12.624 6.05596 19.4991
Pd 12.7225 8.56965 18.3347
Au 9.35212 6.89774 23.4788
Pd 15.9219 11.0954 25.4166
Au 11.1315 10.2194 24.8883
Pd 13.0201 8.29693 21.0358
Pd 14.7094 15.6883 2.93891
Au 15.709 13.1626 3.50158
Au 14.5916 13.4038 6.04246
Pd 13.4638 13.6843 8.65203
Au 14.5518 11.1266 9.34845
Pd 16.2586 15.4208 5.119
Au 13.4359 11.3308 11.9584
Pd 11.1684 13.4439 13.7408
Au 12.3511 11.2268 14.513
Pd 15.0308 13.3621 10.9199
Au 10.2966 12.3541 16.2343
Pd 10.7257 14.8179 17.6708
Au 12.8053 11.0954 17.2071
Pd 12.8042 13.6014 16.1005
Au 11.0664 12.3601 18.9501
Pd 12.6828 15.6319 20.2594
Au 13.2737 10.8628 19.905
Pd 13.4417 13.4643 18.7697
Au 14.2472 12.1543 23.4341
Pd 15.4863 13.3199 26.8405
Au 18.0934 12.582 26.2957
Pd 16.4082 13.6452 24.3545
Pd 13.9023 18.1947 3.82191
Au 16.5623 17.6984 3.5066
Au 13.5744 15.9499 5.37419
Pd 12.4526 16.2376 7.94362
Au 15.1199 15.68 7.67764
Pd 15.4423 17.9575 6.07396
Au 12.2965 13.9729 11.2764
Pd 10.1359 15.6466 12.7703
Au 13.9077 13.6017 13.5356
Pd 13.9877 15.9424 10.2546
Au 9.1631 14.7006 15.2221
Pd 11.2287 17.7429 17.2069
Au 13.2407 16.0188 17.6442
Pd 11.6444 15.8334 15.2411
Au 11.665 17.9203 21.0077
Pd 12.3132 15.9666 23.4843
Au 14.5728 14.7631 22.3038
Pd 14.1831 17.4568 22.3224
Au 13.7973 14.4058 24.9674
Pd 14.8961 15.934 26.8231
Au 17.5275 15.2395 26.3204
Pd 15.9248 16.2955 24.1917
Pd 13.1125 20.6539 4.79573
Au 15.7685 20.1906 4.51849
Au 12.7477 18.4769 6.3451
Pd 11.5712 18.8075 8.9471
Au 14.2904 18.2218 8.70466
Pd 14.6268 20.4387 7.1159
Au 11.3145 16.5587 10.4883
Pd 10.7362 18.3074 12.5773
Au 12.8429 16.2629 12.8241
Pd 13.1958 18.5376 11.3281
Au 9.57261 17.4908 14.8625
Pd 10.8164 24.5994 14.7881
Au 13.9993 18.7111 16.9319
Pd 14.8293 22.8404 12.9886
Au 16.6834 18.7825 18.6366
Pd 14.258 17.8301 19.5981
Au 15.0655 20.0326 26.2788
Pd 12.371 19.7171 18.9838
Au 12.2607 19.8942 25.9986
Pd 15.4515 21.4257 22.1709
Au 13.878 17.7682 25.1977
Pd 14.9831 20.6217 19.4945
Pd 12.3636 23.0525 5.76072
Au 17.6793 22.0696 5.27697
Au 11.9075 20.9684 7.30296
Pd 11.1383 22.5562 9.37568
Au 13.4762 20.7568 9.74654
Pd 16.6031 22.2928 7.81648
Au 10.7721 20.4755 11.0383
Pd 11.1863 25.1004 10.264
Au 8.95251 24.1865 9.03698
Pd 13.2112 23.3721 10.8432
Au 12.3667 18.4819 14.6814
Pd 7.6462 24.1298 15.6965
Au 8.72919 25.9239 14.0996
Pd 9.88346 22.4294 15.9723
Au 17.9871 26.9552 17.8972
Pd 5.1451 21.478 17.0938
Au 12.8926 22.4064 19.6224
Pd 13.4691 27.0279 11.7456
Au 12.6287 22.7503 22.201
Pd 13.6343 24.9316 20.8612
Au 13.0443 26.092 18.5553
Pd 15.3549 26.7628 16.9051
Pd 14.4271 5.03178 8.23961
Pd 13.6362 2.58748 12.0423
Pd 15.6058 3.32966 10.3172
Pd 11.8399 3.91662 15.2973
Pd 16.08 2.98929 13.0616
Pd 14.0301 2.36007 14.7649
Pd 16.495 2.77226 15.8334
Pd 14.4233 2.19477 17.477
Pd 16.8878 2.65581 18.5777
Pd 13.848 9.58116 24.4844
Pd 12.4702 3.69546 20.6491
Pd 15.0856 8.71091 5.31089
Au 15.0464 7.16916 9.76479
Au 13.561 4.91051 10.7467
Pd 14.0055 7.22891 12.3176
Au 16.0539 5.46041 11.828
Pd 15.546 9.40932 11.3559
Au 13.9529 4.72185 13.5549
Pd 14.4091 7.00245 15.1051
Au 16.4827 5.19029 14.6202
Pd 16.5133 7.72509 13.3943
Au 14.3531 4.52031 16.331
Pd 14.8041 6.7644 17.8749
Au 16.8849 4.99922 17.4202
Pd 16.946 7.48644 16.1824
Au 14.7187 4.2332 19.159
Pd 15.1955 6.66891 20.579
Au 17.2588 4.7974 20.2454
Pd 17.3818 7.28614 18.9564
Au 14.9612 4.39707 21.8394
Pd 14.6089 7.32202 23.1128
Au 17.0154 6.09425 22.6345
Pd 17.1973 8.53833 21.4325
Pd 17.3604 15.2058 2.68379
Au 16.7555 10.6912 4.26044
Au 15.669 10.8838 6.76058
Pd 16.1782 13.1132 8.33467
Au 16.0165 11.6864 12.9217
Pd 17.3088 12.8801 5.77336
Au 14.4431 9.51286 13.8962
Pd 14.9113 11.8291 15.4725
Au 16.9836 9.99351 14.9532
Pd 16.5012 13.9498 14.4969
Au 14.8676 9.2817 16.6619
Pd 15.4183 11.5888 18.218
Au 17.4682 9.77734 17.7386
Pd 17.4759 12.2795 16.5187
Au 15.3297 9.1013 19.3991
Pd 15.2021 12.5358 20.8024
Au 17.3789 11.04 20.2494
Pd 17.3454 13.5131 19.0341
Au 14.9126 9.87302 22.0117
Pd 18.9906 12.784 23.774
Au 16.5275 8.78708 24.0737
Pd 16.8798 11.3616 22.9167
Pd 18.4481 19.5786 4.29922
Au 19.2449 17.121 3.30043
Au 18.1559 17.3675 5.7748
Pd 17.0371 17.6117 8.36045
Au 17.8485 15.0994 7.35198
Pd 18.9064 20.9677 8.79644
Au 16.7013 15.3336 9.9311
Pd 15.5498 15.5827 12.5039
Au 17.0056 16.7034 14.5527
Pd 17.4817 18.9665 13.064
Au 15.3974 14.0978 17.0393
Pd 15.863 16.7688 17.1546
Au 18.0034 14.9814 16.6126
Pd 16.4875 19.491 15.8869
Au 15.3161 15.2601 19.6592
Pd 16.7873 16.5215 21.6219
Au 17.2445 13.9422 21.7772
Pd 17.7531 16.2672 19.0668
Au 18.5513 15.4653 23.7658
Pd 18.1783 18.0691 23.4483
Au 16.7636 17.8381 26.1615
Pd 21.0405 14.4942 23.0745
Pd 15.0116 22.6135 5.61903
Au 21.4923 21.8988 8.22186
Au 17.3668 19.8591 6.78887
Pd 16.2746 20.0759 9.35848
Au 17.9048 21.2173 11.4033
Pd 19.2044 23.1741 7.25545
Au 15.926 17.8369 10.968
Pd 14.8824 18.1336 13.6049
Au 16.6854 22.0809 17.8736
Pd 16.9721 21.4809 14.0063
Au 14.361 15.8851 15.0967
Pd 12.6607 22.681 14.8181
Au 15.7182 19.2358 23.8705
Pd 18.6561 24.7771 14.5151
Au 14.0302 21.5378 17.2417
Pd 11.0709 26.2722 16.8548
Au 20.8552 17.3595 23.2048
Pd 13.0765 24.9183 13.1832
Au 16.3489 22.1051 24.6527
Pd 17.8461 20.1052 25.4684
Au 20.1639 14.3926 25.7285
Pd 16.5494 25.5762 21.8413
Pd 14.2396 24.9635 6.73596
Au 18.4997 25.5609 8.21542
Au 16.9065 24.472 6.32495
Pd 15.6972 22.5438 10.3575
Au 15.3582 20.3248 11.9642
Pd 17.7684 25.9095 10.7436
Au 12.8433 21.0725 12.5091
Pd 6.52009 23.7095 10.6686
Au 11.618 24.6193 7.69235
Pd 17.3481 23.729 12.391
Au 11.01 23.2428 12.3292
Pd 16.2871 27.2649 12.51
Au 6.55969 24.5534 13.181
Pd 23.6171 24.6182 14.6026
Au 10.8104 26.2794 12.4549
Pd 11.8709 27.1515 14.5226
Au 17.2639 27.211 15.1079
Pd 14.4501 27.3735 14.3591
Au 13.0913 27.9518 16.6573
Pd 15.7974 26.0474 19.3986
Au 17.3166 24.6009 24.26
Pd 15.2314 25.0467 11.4524
Pd 17.0565 5.36632 9.25597
Pd 18.0787 3.76264 11.3542
Pd 19.6126 5.7719 10.3066
Pd 18.5567 3.44432 14.1126
Pd 20.5708 4.19183 12.4065
Pd 18.9748 3.25306 16.9029
Pd 21.0445 3.90007 15.1562
Pd 19.3678 3.23313 19.6503
Pd 21.4507 3.79914 17.9196
Pd 19.2654 4.59895 22.0448
Pd 21.3714 5.02997 20.3741
Pd 16.6216 9.21496 8.77503
Au 16.0719 6.99257 7.2162
Au 17.5981 7.56663 10.7941
Pd 18.092 9.8122 12.3848
Au 20.1547 7.99512 11.8268
Pd 19.1984 9.60656 9.80763
Au 18.5678 5.9166 12.8735
Pd 19.0401 8.17861 14.4334
Au 21.0882 6.35967 13.9018
Pd 20.6597 10.2604 13.4275
Au 19.0048 5.65988 15.6676
Pd 19.5119 7.9796 17.2139
Au 21.5514 6.15138 16.6855
Pd 21.5834 8.64163 15.4488
Au 19.4396 5.53079 18.4527
Pd 19.427 9.29505 19.6652
Au 21.4682 7.43948 19.1556
Pd 21.5058 9.95651 17.9096
Au 19.3287 6.88202 20.8763
Pd 18.994 7.77897 23.3898
Au 21.266 6.40036 22.7543
Pd 21.3945 8.78547 21.5838
Pd 18.3831 12.7008 3.32747
Au 18.2597 11.2282 7.77639
Au 17.1333 11.469 10.3562
Pd 17.6402 13.7236 11.9416
Au 19.7105 11.8738 11.4029
Pd 18.7878 13.4897 9.38029
Au 18.585 12.1035 13.9631
Pd 19.115 14.8261 14.03
Au 21.2157 12.9979 13.528
Pd 20.2694 14.6087 11.4612
Au 19.5467 10.4563 15.9896
Pd 20.0944 13.1929 16.113
Au 22.1494 11.3859 15.5761
Pd 22.6762 14.1301 15.6989
Au 19.4503 11.7748 18.465
Pd 19.5038 12.8691 21.041
Au 21.5025 11.2556 20.3653
Pd 22.0665 12.7515 18.0676
Au 19.2485 10.2894 22.2407
Pd 18.543 10.2834 24.8786
Au 20.9986 9.26346 24.2503
Pd 21.3599 11.7693 23.0599
Pd 23.0228 22.9901 10.204
Au 21.4782 15.7979 4.34409
Au 18.9807 14.8738 4.75189
Pd 18.535 18.7343 10.4034
Au 19.3209 16.2481 9.4122
Pd 19.6472 18.5082 7.80374
Au 18.182 16.4629 11.9864
Pd 19.6586 17.5419 14.0314
Au 21.7398 15.7125 13.563
Pd 20.7882 17.345 11.4613
Au 20.6146 15.8978 16.1272
Pd 18.6358 20.149 17.5795
Au 18.739 18.3789 20.5764
Pd 21.0583 18.6573 16.1772
Au 19.8935 14.509 18.6023
Pd 19.4566 15.7241 21.1622
Au 21.6592 17.2861 20.5795
Pd 20.2016 17.2331 18.4445
Au 21.8104 14.2538 20.472
Pd 22.7301 13.2729 24.9454
Au 20.6811 11.6791 25.684
Pd 20.5666 19.8238 21.8152
Pd 18.2457 23.4133 9.81043
Au 24.5851 24.1035 12.1375
Au 21.1543 19.6294 9.78826
Pd 15.437 22.9915 15.5718
Au 20.0878 19.845 12.3896
Pd 20.4731 22.1342 10.7963
Au 14.3403 20.54 14.6976
Pd 12.0139 23.6361 17.2985
Au 22.2208 18.4493 13.597
Pd 19.12 20.0795 14.9322
Au 21.0186 21.2497 16.7973
Pd 17.6854 21.0381 20.1699
Au 20.7806 19.7762 19.1172
Pd 23.636 19.6654 15.7547
Au 24.0326 21.6923 22.0497
Pd 13.4741 25.2506 15.7707
Au 19.751 22.3942 21.5455
Pd 16.1853 19.0049 21.2794
Au 19.5511 17.2291 25.6569
Pd 19.1001 22.5302 24.2299
Au 22.0515 18.3524 25.56
Pd 18.023 20.5705 22.7825
Pd 19.8373 24.6121 11.8507
Au 24.4712 24.5071 17.3912
Au 22.3362 25.393 11.2661
Pd 22.8962 25.5296 19.432
Au 20.7458 24.3879 9.27057
Pd 19.4989 22.3766 13.399
Au 15.5567 27.1875 9.93396
Pd 13.8256 22.9035 8.19751
Au 17.0418 24.7425 16.7533
Pd 14.6423 24.1106 17.9425
Au 18.9239 26.9118 13.0056
Pd 13.5629 25.5851 9.30506
Au 26.8847 18.36 19.9214
Pd 21.9549 21.9651 20.3173
Au 20.6548 26.9244 18.6323
Pd 15.8551 25.1552 14.1605
Au 15.4845 23.2433 20.2713
Pd 20.4303 24.5166 19.9845
Au 19.4372 24.9203 22.5498
Pd 17.7905 24.231 19.4689
Au 21.6731 21.9717 23.3306
Pd 23.4591 22.3593 16.0963
Pd 18.639 7.40634 8.27383
Pd 22.1567 6.19375 11.3464
Pd 20.2725 9.42002 7.28949
Pd 23.0641 4.61914 13.4244
Pd 24.6551 6.66101 12.4105
Pd 23.5345 4.41389 16.146
Pd 26.6494 11.7857 17.014
Pd 23.4569 5.61484 18.5878
Pd 25.5081 5.0858 14.4154
Pd 23.3657 6.86643 21.0187
Pd 25.3913 7.51983 19.1956
Pd 17.6863 9.02927 6.25052
Au 19.353 11.0043 5.23084
Au 21.2287 7.78303 9.28007
Pd 21.766 10.0531 10.8729
Au 23.7593 8.25446 10.3723
Pd 22.7978 9.87958 8.39326
Au 22.7198 8.45638 12.8783
Pd 23.2947 11.1694 12.9647
Au 24.4015 10.9534 10.4247
Pd 23.4179 12.574 8.41142
Au 23.6135 6.82163 14.9136
Pd 26.6558 10.4893 14.6071
Au 25.5091 6.26743 16.7985
Pd 25.8231 12.1024 12.5772
Au 23.5486 8.0998 17.3436
Pd 24.1815 9.55789 15.0083
Au 25.3299 9.35396 12.4441
Pd 24.6239 13.6158 17.5895
Au 23.4752 9.34432 19.7977
Pd 23.3024 8.17987 23.3795
Au 25.3728 8.68401 21.6121
Pd 26.1162 7.73717 14.4946
Pd 19.8988 13.2601 6.81988
Au 20.9461 13.0762 4.32935
Au 20.8317 11.6569 8.83682
Pd 21.4105 14.3926 8.8841
Au 22.5211 14.1642 6.33398
Pd 20.7426 18.2714 5.27954
Au 22.3602 12.7707 10.9352
Pd 23.8065 13.8984 13.0749
Au 21.8899 11.4584 6.32917
Pd 24.9028 13.681 10.5392
Au 24.7216 12.3085 15.1158
Pd 22.4986 15.5401 18.1842
Au 27.2058 13.2511 14.7315
Pd 25.1923 15.0539 15.2411
Au 24.1343 10.8653 17.465
Pd 24.0732 12.0954 19.9231
Au 26.1654 8.98626 16.8884
Pd 26.5644 12.9891 19.4377
Au 23.6033 10.5637 22.2596
Pd 23.1343 10.6301 24.8697
Au 24.8319 14.9054 24.1603
Pd 26.0498 10.2132 19.2749
Pd 22.2155 19.3638 7.29111
Au 19.9893 20.7462 6.23288
Au 20.4492 16.0158 6.83928
Pd 21.9054 17.1172 8.89943
Au 24.0012 15.2822 8.44169
Pd 22.9483 16.8814 6.41121
Au 22.8861 15.4905 10.9792
Pd 26.3243 14.8214 12.699
Au 27.6287 15.9994 14.8949
Pd 25.4262 16.3755 10.6033
Au 23.1916 16.8933 15.7191
Pd 25.0353 16.3525 17.6794
Au 27.1484 14.5482 17.1735
Pd 25.7411 17.8618 15.287
Au 24.4675 14.7842 20.0674
Pd 23.2571 16.1018 22.2857
Au 26.1215 11.3256 21.6704
Pd 26.8942 15.7151 19.6411
Au 23.5347 13.3422 22.3224
Pd 24.3358 17.5519 24.1923
Au 25.1575 12.1871 24.0342
Pd 22.3292 15.8725 24.9558
Pd 22.0528 23.2585 12.7855
Au 23.774 20.4697 9.22164
Au 22.7162 20.7534 11.76
Pd 21.7155 21.0159 14.2893
Au 24.4527 17.962 8.47352
Pd 25.2556 21.5854 11.1983
Au 23.3734 18.2111 10.9731
Pd 24.7251 19.3271 13.1526
Au 26.8191 17.516 12.7464
Pd 25.867 19.0482 10.6382
Au 27.1427 20.1807 12.7628
Pd 22.88 18.2261 18.1126
Au 27.4571 17.2773 17.3954
Pd 24.3148 16.6157 13.1363
Au 18.4424 17.718 16.5395
Pd 19.5724 22.3273 18.7629
Au 25.9935 16.5788 22.1411
Pd 25.4498 20.6458 19.9545
Au 25.2645 19.1313 22.1589
Pd 23.0745 19.5717 20.6314
Au 26.2381 13.9505 21.987
Pd 24.4669 17.4326 20.0933
Pd 16.02 24.7498 8.8269
Au 19.6589 24.734 17.3682
Au 22.2038 25.8215 16.648
Pd 25.4564 19.1187 17.7226
Au 21.3223 25.8399 13.7856
Pd 25.6495 21.9351 17.6136
Au 21.0947 23.6238 15.3301
Pd 23.3136 20.8659 18.28
Au 24.3082 21.9215 13.6902
Pd 25.8585 23.3863 15.3998
Au 26.1528 20.6455 15.258
Pd 26.7348 22.7197 13.0774
Au 24.2856 23.1536 19.7281
Pd 18.5655 22.5082 16.0213
Au 21.2356 26.5826 21.3112
Pd 19.8276 26.8853 15.8034
Au 20.2416 19.8957 24.4678
Pd 22.7825 19.4586 23.2686
Au 22.3845 24.1292 21.7991
Pd 17.3955 23.1487 22.1041
Au 18.6409 26.5822 20.4895
Pd 22.0442 23.4461 18.0539
