665
Atoms. Timestep: 20370
Pd 8.0231 8.36382 8.08899
Pd 5.1914 8.54157 12.1556
Pd 3.3114 8.94471 16.5038
Pd 3.54209 8.31591 19.1566
Pd 6.69025 8.48085 22.6276
Au 8.87587 9.53993 5.76402
Au 5.92998 9.57359 9.69205
Pd 6.81583 10.6918 7.30785
Au 3.43896 9.8654 13.9556
Pd 4.12263 10.9457 11.443
Au 3.40813 10.8143 18.4496
Pd 3.47606 11.7349 15.9341
Au 4.48973 9.54425 21.4188
Pd 4.59583 12.0914 20.4986
Au 5.54136 10.7882 23.6656
Pd 5.7737 13.3181 22.6735
Au 7.64876 11.7987 4.92091
Au 4.86684 11.9896 8.93691
Pd 5.66245 13.0263 6.50721
Au 3.87207 12.7754 13.4647
Pd 4.50265 13.7954 11.021
Au 3.46638 13.4681 18.0748
Pd 3.80835 14.5707 15.6193
Au 5.94902 16.0091 22.034
Pd 4.69291 14.7985 20.0249
Au 6.62614 12.0233 25.765
Pd 6.98191 14.5044 24.8011
Au 8.91971 14.9144 3.66752
Au 5.11862 14.7891 8.56456
Pd 5.86598 15.7691 6.13006
Au 4.24749 15.6155 13.1506
Pd 4.83717 16.6115 10.6938
Au 3.65387 16.2185 17.8417
Pd 4.10344 17.3428 15.373
Au 6.21696 18.792 21.9123
Pd 4.90748 17.5696 19.8438
Au 8.77338 18.1408 26.0443
Pd 7.36065 17.1404 23.9866
Au 6.42173 14.0281 4.11602
Au 5.39664 17.5746 8.20029
Pd 6.21306 18.429 5.72982
Au 4.55479 18.4 12.8759
Pd 5.1122 19.3869 10.3867
Au 3.89169 18.9568 17.6185
Pd 4.37088 20.0648 15.1162
Au 6.58443 21.4975 21.7415
Pd 5.11988 20.2816 19.6572
Au 11.2148 19.0866 26.3751
Pd 7.71516 19.9212 23.8852
Au 7.6323 20.7324 5.81763
Au 7.1521 22.5059 12.0413
Pd 6.80817 16.6037 3.72706
Au 6.96224 24.0494 14.3049
Pd 9.07538 22.9483 9.88897
Au 4.64285 22.7261 14.8601
Pd 9.32596 25.4344 14.3763
Au 8.85302 22.4082 22.8953
Pd 7.84237 23.846 20.7768
Au 10.0898 20.8707 24.7621
Pd 9.84579 22.3301 20.3133
Pd 10.1133 7.27131 6.5998
Pd 7.20386 7.25075 10.4562
Pd 9.29339 6.05728 8.89545
Pd 5.2408 7.96414 14.761
Pd 7.26799 6.91358 13.1324
Pd 5.45494 7.53441 17.4733
Pd 7.45258 6.60316 15.8608
Pd 5.70918 7.31392 20.313
Pd 7.65868 6.36904 18.6657
Pd 8.93721 7.41291 23.7269
Pd 7.93042 6.25849 21.4558
Pd 11.4575 10.5993 5.53399
Au 12.6494 8.326 6.30024
Au 10.5473 9.52378 7.91586
Pd 8.4587 10.6683 9.48077
Au 9.65623 8.29318 10.2969
Pd 13.055 10.6837 7.7754
Au 7.62906 9.48477 11.8919
Pd 5.78549 10.8188 13.6049
Au 7.67584 9.10878 14.6502
Pd 10.1147 10.616 11.7774
Au 5.60455 10.1198 16.3096
Pd 5.85983 12.1618 18.0962
Au 7.8347 8.81707 17.4313
Pd 8.07365 11.3554 16.2038
Au 5.79891 9.71517 19.1111
Pd 6.89769 10.934 21.3952
Au 8.05725 8.6299 20.2601
Pd 8.25535 11.0782 19.0219
Au 9.15251 9.80951 22.5889
Pd 10.1781 10.913 24.8907
Au 7.72477 9.71416 24.8678
Pd 11.6143 11.0699 22.5772
Pd 10.2408 12.7943 4.6357
Au 13.1153 12.677 4.45114
Au 9.33568 11.8304 7.06796
Pd 7.31433 13.0712 8.64053
Au 10.9843 11.8625 9.35754
Pd 11.8727 12.944 6.89647
Au 6.52309 11.9415 11.0821
Pd 6.38833 13.9073 13.0236
Au 8.18653 11.8353 13.4053
Pd 8.97309 13.0254 10.9205
Au 5.88299 12.8583 15.4599
Pd 5.88037 14.7234 17.5336
Au 8.38049 13.5085 17.8881
Pd 8.36719 13.9877 15.1177
Au 7.02772 13.444 20.3009
Pd 8.27503 14.6764 22.5309
Au 9.38927 12.3034 21.325
Pd 9.55664 14.7879 20.1358
Au 8.03205 12.1597 23.636
Pd 9.08046 13.1861 25.9391
Au 12.7328 12.0217 24.946
Pd 10.522 13.3836 23.7023
Pd 10.2591 17.2074 3.65951
Au 11.8529 14.9149 3.60125
Au 8.10346 14.1378 6.17874
Pd 7.63725 15.9766 8.1865
Au 9.77713 14.2134 8.45506
Pd 10.5997 15.1543 5.93688
Au 6.98958 14.9469 10.6073
Pd 6.76983 16.8099 12.6635
Au 8.9348 15.1047 12.691
Pd 9.52213 16.2122 10.2923
Au 6.27695 15.7538 15.0801
Pd 6.0859 17.4394 17.329
Au 8.43088 15.9967 17.0193
Pd 8.88829 17.0588 14.6144
Au 7.15317 16.041 19.5326
Pd 8.46943 17.2381 21.5379
Au 10.7376 15.8767 22.5009
Pd 9.70031 17.3027 19.0571
Au 9.44747 15.6858 24.9875
Pd 10.8233 16.5884 27.1896
Au 11.682 14.2797 26.0752
Pd 12.0069 16.7869 24.8538
Pd 8.15255 18.8961 3.87451
Au 11.7719 19.4397 3.65461
Au 8.45326 16.8657 5.70678
Pd 7.98695 18.7335 7.72494
Au 10.2581 17.1271 7.8106
Pd 9.97301 19.152 5.80126
Au 7.29119 17.8191 10.214
Pd 7.03528 19.6399 12.3664
Au 9.28631 18.1504 12.2366
Pd 9.86973 19.0498 9.77901
Au 6.57687 18.5409 14.8279
Pd 6.32956 20.1364 17.0966
Au 8.62608 18.707 16.8423
Pd 9.1194 19.8874 14.3976
Au 7.35315 18.8123 19.395
Pd 8.74817 20.0013 21.4319
Au 10.9986 18.4195 21.2007
Pd 9.7842 20.0901 18.8967
Au 9.85492 18.2898 23.6806
Pd 12.7885 18.2671 28.3092
Au 14.3418 20.4864 27.8291
Pd 12.3524 19.2745 23.8284
Pd 7.31568 22.4533 7.92258
Au 9.63889 21.1007 3.97907
Au 5.7584 20.2624 7.85531
Pd 4.86016 21.1411 12.6112
Au 9.57959 21.0154 7.82432
Pd 9.26418 22.8575 5.97357
Au 5.49522 22.0231 10.0058
Pd 8.84549 24.5807 11.9895
Au 7.64898 20.5774 9.86639
Pd 11.0306 23.3804 7.9262
Au 6.82661 21.321 14.5678
Pd 9.43131 21.0505 11.9524
Au 6.48411 22.9924 16.8064
Pd 11.5128 21.3465 14.0579
Au 7.38046 21.6026 19.2074
Pd 10.349 24.4557 21.8971
Au 11.1607 21.0101 22.2162
Pd 4.26001 21.6317 17.3398
Au 11.5805 23.1047 23.9779
Pd 9.72003 25.6401 19.6086
Au 12.7516 21.3317 25.7918
Pd 8.66459 21.4166 16.6472
Pd 11.355 4.99925 7.41359
Pd 9.33192 5.81065 11.5891
Pd 11.4151 4.7334 10.0783
Pd 9.49468 5.5891 14.3108
Pd 11.5697 4.54759 12.7909
Pd 9.67601 5.38581 17.0756
Pd 11.7374 4.37649 15.5385
Pd 9.88617 5.2304 19.8535
Pd 11.9167 4.23134 18.3074
Pd 10.1391 5.21204 22.5462
Pd 12.115 4.16547 21.0336
Pd 14.314 10.4198 5.35555
Au 13.8187 6.03328 7.10457
Au 11.7625 7.18698 8.73592
Pd 12.1553 9.49497 10.2115
Au 11.8048 6.98516 11.5173
Pd 14.2223 8.38472 8.58662
Au 9.73528 8.05612 13.0675
Pd 10.1798 10.3571 14.5801
Au 11.9518 6.80168 14.28
Pd 12.2361 9.31169 13.0084
Au 9.88728 7.8291 15.8385
Pd 10.3071 10.1328 17.3732
Au 12.1241 6.62824 17.06
Pd 12.3684 9.12276 15.7916
Au 10.0785 7.63788 18.6286
Pd 10.523 9.97663 20.1849
Au 12.3365 6.49387 19.8742
Pd 12.5447 8.94967 18.5945
Au 10.327 7.54394 21.4306
Pd 13.857 9.80788 23.7707
Au 11.3583 8.6191 23.8267
Pd 12.7474 8.81591 21.425
Pd 14.7824 14.8125 3.62922
Au 15.9997 12.4967 4.38947
Au 14.6902 12.7613 6.77084
Pd 13.4684 13.0515 9.25885
Au 14.6178 10.7359 10.1004
Pd 16.329 14.867 5.91902
Au 12.5591 11.8528 11.6848
Pd 10.571 12.9731 13.2842
Au 12.6385 11.6398 14.505
Pd 15.0101 13.1287 11.6115
Au 10.5374 12.6336 16.1138
Pd 10.8958 14.8795 17.7178
Au 12.7688 11.4388 17.309
Pd 13.0115 13.9481 16.0253
Au 10.7241 12.4418 18.9346
Pd 11.8443 13.5709 21.2946
Au 12.9571 11.2771 20.1394
Pd 13.172 13.7612 18.8227
Au 14.1015 12.2752 22.5377
Pd 14.5918 13.891 25.8333
Au 15.6765 11.6644 24.7377
Pd 15.8799 14.1631 23.44
Pd 13.3153 17.1378 3.28248
Au 16.3619 16.9386 3.04357
Au 13.4447 15.0477 5.90318
Pd 12.24 15.2747 8.35904
Au 15.0793 15.1457 8.32864
Pd 15.0308 17.2056 5.34712
Au 11.3773 14.2423 10.8338
Pd 11.3883 16.4113 12.5131
Au 12.9693 14.2295 13.2094
Pd 13.7973 15.425 10.7858
Au 10.8274 15.1854 14.9209
Pd 10.9927 17.3214 16.6239
Au 13.3622 16.2571 17.5447
Pd 13.246 16.5058 14.7625
Au 12.0277 16.0513 20.0132
Pd 13.2487 17.0111 22.3845
Au 14.319 14.784 21.1801
Pd 14.5037 17.2885 19.8763
Au 13.0273 14.5252 23.6858
Pd 13.5895 16.0913 27.0176
Au 16.3954 15.7665 26.842
Pd 14.8361 16.3868 24.6252
Pd 13.4242 21.5765 3.78256
Au 14.9277 19.2756 3.29247
Au 12.0497 17.386 5.6208
Pd 11.8244 19.4031 7.80711
Au 13.728 17.4589 7.77301
Pd 13.592 19.5585 5.64724
Au 12.0407 17.4066 10.0412
Pd 11.6691 19.5108 11.9053
Au 13.7858 17.7417 12.3336
Pd 13.5124 19.6554 9.98174
Au 11.4346 18.4913 14.3005
Pd 11.1343 20.0939 16.5471
Au 13.5158 18.8128 16.3322
Pd 15.7635 22.1202 13.1843
Au 12.1958 18.591 18.7543
Pd 13.4718 19.49 21.2161
Au 15.0581 18.8967 23.3723
Pd 12.1908 21.2024 19.5583
Au 13.8936 18.615 25.9336
Pd 15.4511 20.8444 25.3199
Au 15.4631 17.9871 28.0832
Pd 16.5896 21.1421 22.8672
Pd 12.9853 23.6951 5.96194
Au 14.8878 23.8039 4.07529
Au 11.5505 21.4316 5.7792
Pd 12.9948 25.3415 8.05891
Au 13.1996 21.7377 7.95025
Pd 15.4227 26.1521 8.89716
Au 11.326 21.4057 9.91257
Pd 9.24095 22.7462 14.1801
Au 10.8498 25.0938 9.98646
Pd 13.0902 23.5534 9.96976
Au 13.877 19.9926 13.9674
Pd 10.1334 25.2574 16.8077
Au 10.9199 22.7259 16.5403
Pd 11.6952 24.1448 14.4662
Au 12.9128 24.7599 16.8886
Pd 8.73943 23.6158 18.1929
Au 12.6087 23.1904 21.385
Pd 11.7077 26.6608 15.1659
Au 13.801 21.5068 23.2017
Pd 13.2803 25.0833 23.0895
Au 14.385 23.4926 24.9891
Pd 12.3238 25.8032 20.5468
Pd 13.4818 3.81941 8.55734
Pd 13.6632 3.60742 11.2349
Pd 15.9485 4.12994 9.71987
Pd 13.8258 3.44885 13.9862
Pd 16.1055 3.93301 12.456
Pd 13.9968 3.31177 16.7675
Pd 16.2612 3.77368 15.2276
Pd 14.1806 3.21363 19.5177
Pd 16.4362 3.64034 17.9995
Pd 12.5067 6.40511 22.631
Pd 16.6231 3.58284 20.7273
Pd 15.5205 8.09478 6.17543
Au 16.1949 6.47755 8.3537
Au 13.9124 5.97297 9.93041
Pd 14.3157 8.26613 11.4233
Au 16.3708 6.35345 11.1745
Pd 16.6032 8.83894 9.90798
Au 14.0525 5.79218 12.7031
Pd 14.4517 8.10579 14.2023
Au 16.5117 6.18279 13.9558
Pd 16.7541 8.68946 12.6959
Au 14.21 5.63512 15.4845
Pd 14.6079 7.94792 16.9939
Au 16.6677 6.029 16.7432
Pd 16.897 8.52139 15.4689
Au 14.3891 5.50517 18.2986
Pd 14.7828 7.76638 19.8357
Au 16.8265 5.91255 19.5637
Pd 17.0462 8.36315 18.2627
Au 14.5679 5.29473 21.1741
Pd 14.9701 7.58132 22.6088
Au 17.0296 5.78608 22.3553
Pd 17.2229 8.2246 21.1015
Pd 17.6526 14.6147 3.61381
Au 17.1592 10.1365 5.21017
Au 15.8738 10.4328 7.62601
Pd 16.2791 12.8268 9.15119
Au 17.0073 11.2249 11.4069
Pd 17.5353 12.5265 6.71104
Au 14.7119 10.5916 12.9062
Pd 15.1001 12.9613 14.3954
Au 17.1362 11.0443 14.1911
Pd 17.3739 13.5981 12.913
Au 14.843 10.4224 15.698
Pd 15.2284 12.7596 17.1811
Au 17.276 10.8596 16.9769
Pd 17.504 13.3858 15.6827
Au 15.0018 10.24 18.5107
Pd 15.407 12.5499 20.0055
Au 17.445 10.698 19.7944
Pd 17.6543 13.2009 18.4658
Au 15.196 10.0399 21.3654
Pd 17.4577 13.5923 25.609
Au 16.7568 9.42347 23.5998
Pd 16.9494 11.9316 22.2919
Pd 17.8399 19.144 3.38971
Au 19.275 16.7457 3.18094
Au 17.9064 17.0737 5.35101
Pd 16.6349 17.3749 7.67069
Au 17.9559 14.9559 8.22462
Pd 18.6003 19.265 7.24079
Au 16.6782 15.216 10.6655
Pd 15.3709 15.5484 13.077
Au 17.7395 15.9483 14.3854
Pd 17.1522 17.5915 12.1361
Au 15.4494 15.2889 15.8608
Pd 15.8272 17.6453 17.3448
Au 17.866 15.7274 17.1725
Pd 18.0445 18.3385 15.8745
Au 15.6193 15.0744 18.6791
Pd 16.074 16.6694 22.1219
Au 17.1639 14.4687 20.9425
Pd 17.3565 17.0433 19.6182
Au 17.6505 16.0638 24.3601
Pd 18.2335 17.7125 27.6504
Au 19.2819 15.5064 26.514
Pd 20.5017 15.8205 23.9889
Pd 16.3619 21.5243 3.71221
Au 18.6425 21.2159 5.19043
Au 16.4671 19.5041 5.56894
Pd 15.1118 19.7483 7.86177
Au 17.1584 19.5655 9.56201
Pd 17.1065 21.5423 7.45795
Au 15.3286 17.5572 10.0372
Pd 15.5573 19.7521 11.8134
Au 15.8448 20.4217 15.9465
Pd 17.5689 21.6909 11.3264
Au 15.6793 17.9368 14.5019
Pd 13.3459 21.7765 17.3052
Au 16.2442 19.1989 20.8274
Pd 15.6049 24.2302 10.7515
Au 14.6954 19.7929 18.6229
Pd 14.8672 21.6897 20.5697
Au 17.846 18.6058 23.0107
Pd 14.6084 25.1906 14.9523
Au 16.6302 18.3097 25.606
Pd 17.0125 20.2102 27.5471
Au 20.9708 17.5398 27.2048
Pd 15.8806 22.6514 27.123
Pd 15.1092 25.4253 6.18378
Au 17.0798 23.5379 5.55461
Au 14.955 21.8726 5.91973
Pd 15.1937 23.6342 7.98285
Au 15.3231 21.7071 9.84456
Pd 15.8024 26.7586 11.5786
Au 13.4 21.6947 11.9175
Pd 11.2788 25.9265 12.5078
Au 13.3208 26.1969 10.6387
Pd 13.652 24.3529 12.5987
Au 11.0996 23.2317 11.979
Pd 16.101 27.3425 14.201
Au 13.8669 22.6104 14.9241
Pd 13.98 27.3644 16.1934
Au 13.6258 27.022 13.2742
Pd 11.4468 23.8453 18.9121
Au 14.0805 24.0019 19.3153
Pd 11.7235 26.8009 18.0824
Au 15.4535 23.5637 22.3623
Pd 16.1212 25.5091 23.8758
Au 18.5317 22.3789 26.9134
Pd 14.9872 25.9042 21.2066
Pd 18.2536 4.81303 8.26075
Pd 18.4052 4.53923 10.9654
Pd 20.6653 5.25961 9.50554
Pd 18.5465 4.35552 13.7111
Pd 20.836 4.99875 12.2262
Pd 18.7025 4.19663 16.4718
Pd 20.9754 4.80857 14.9751
Pd 18.8648 4.07725 19.2245
Pd 21.1278 4.66095 17.7366
Pd 19.0219 4.08584 21.9157
Pd 21.2617 4.60986 20.4841
Pd 17.9036 8.59266 7.51038
Au 17.6177 6.34009 6.11608
Au 18.6434 7.01832 9.66593
Pd 19.0292 9.33353 11.1891
Au 21.0797 7.49161 10.9394
Pd 20.3635 9.04419 8.74304
Au 18.8034 6.79879 12.4445
Pd 19.1769 9.14262 13.9682
Au 21.2306 7.26742 13.722
Pd 21.4491 9.81575 12.4829
Au 18.9464 6.62238 15.2171
Pd 19.3233 8.97165 16.7306
Au 21.3786 7.08856 16.4884
Pd 21.6203 9.60138 15.2519
Au 19.1006 6.47774 17.9964
Pd 19.4651 8.8521 19.5181
Au 21.5259 6.97872 19.278
Pd 21.7499 9.46042 18.0204
Au 19.251 6.4155 20.7874
Pd 18.8786 7.65158 23.2579
Au 20.8697 5.85434 22.8775
Pd 21.0675 8.30114 21.7051
Pd 18.8524 12.2298 4.35159
Au 19.5464 10.6143 6.57126
Au 18.2875 10.9291 8.98579
Pd 18.6853 13.3036 10.4891
Au 20.7381 11.3941 10.2697
Pd 19.9479 12.9859 8.08468
Au 19.4107 11.6888 12.6905
Pd 19.7813 14.0027 14.2042
Au 21.8614 12.1095 13.9889
Pd 21.1748 13.682 11.7843
Au 19.5656 11.4836 15.4711
Pd 19.9223 13.8188 16.9845
Au 22.0051 11.9339 16.792
Pd 22.2282 14.3841 15.5407
Au 19.6961 11.3383 18.2486
Pd 19.2117 12.6244 20.7103
Au 21.2676 10.7907 20.4464
Pd 21.5223 13.2568 19.1912
Au 19.0139 10.1138 22.0494
Pd 18.5486 11.3584 24.4546
Au 20.6518 9.56377 24.1967
Pd 20.7974 12.0563 22.9097
Pd 19.988 18.8253 5.00542
Au 20.5046 14.2789 3.50362
Au 19.2466 14.6461 5.82562
Pd 18.5459 17.2466 9.72909
Au 20.4681 15.2599 9.58261
Pd 19.9316 16.9036 7.31662
Au 19.1183 15.6154 11.9918
Pd 19.5378 17.9346 13.5478
Au 21.5963 15.9416 13.3535
Pd 21.0203 17.4823 11.1689
Au 20.1564 16.3294 15.7309
Pd 17.4832 19.7392 18.2301
Au 19.5819 17.7076 18.1034
Pd 20.7365 19.0543 15.8119
Au 19.4307 15.1316 19.3981
Pd 18.9428 16.42 21.8202
Au 21.0149 14.5323 21.6075
Pd 21.1905 17.0744 20.2961
Au 18.7218 13.8467 23.1767
Pd 22.0324 15.3422 26.075
Au 20.334 13.2961 25.3369
Pd 20.7768 18.4265 22.7041
Pd 19.3138 23.176 7.10273
Au 20.8137 20.8867 6.8379
Au 20.6882 19.065 8.9516
Pd 18.4688 22.7526 13.7531
Au 19.1724 19.5129 11.3666
Pd 20.1925 22.3878 11.4321
Au 17.5426 19.9985 13.6668
Pd 16.6446 23.0876 15.6575
Au 22.2268 18.6843 13.4425
Pd 20.2646 20.6777 13.6193
Au 18.6678 21.0424 15.9539
Pd 18.5123 22.5702 18.1849
Au 20.2426 20.4152 18.1977
Pd 23.4421 19.7602 15.7438
Au 19.1283 19.0692 20.4916
Pd 15.8929 22.189 18.0874
Au 19.4071 20.818 22.6782
Pd 17.6091 21.4482 20.3787
Au 19.4415 18.0485 25.1681
Pd 19.6835 19.9392 27.1779
Au 21.0678 20.2064 24.9123
Pd 18.1705 20.5466 25.05
Pd 17.581 23.4616 9.21917
Au 22.7396 23.1714 11.4135
Au 19.2657 21.3541 9.11258
Pd 19.194 27.3816 16.581
Au 20.1033 24.3057 9.45182
Pd 17.9023 26.1263 9.96154
Au 17.526 25.349 7.4228
Pd 18.3674 24.2551 11.6208
Au 17.7769 25.5631 15.2199
Pd 16.553 27.381 16.8482
Au 18.3806 26.6177 12.7593
Pd 16.3875 24.7046 13.1968
Au 22.9694 21.1201 18.1891
Pd 20.9117 25.7238 17.6556
Au 15.6719 24.9377 17.3691
Pd 14.2199 26.7003 18.7488
Au 16.733 24.0701 19.939
Pd 18.2494 25.2244 17.8273
Au 17.121 23.1654 24.7593
Pd 17.6842 25.9214 21.7145
Au 19.9133 22.6983 24.584
Pd 19.4274 27.0348 19.4364
Pd 19.993 6.75504 7.29999
Pd 23.0862 5.74758 10.7798
Pd 21.6272 8.76995 6.35643
Pd 23.2446 5.4821 13.5071
Pd 25.4143 6.28092 12.1001
Pd 23.3895 5.28634 16.2388
Pd 25.9097 11.9345 17.526
Pd 23.5166 5.20678 18.9844
Pd 25.6042 6.01561 14.7987
Pd 23.1053 6.42764 21.4466
Pd 25.2964 7.05339 19.931
Pd 19.1904 8.31601 5.18985
Au 20.7956 10.2939 4.23671
Au 22.4174 7.18311 8.51619
Pd 22.7678 9.52439 10.0449
Au 24.745 7.71098 9.83949
Pd 23.968 9.25734 7.6553
Au 23.4989 8.01105 12.2551
Pd 23.9239 10.2479 13.7801
Au 25.2793 9.93721 11.3133
Pd 24.4905 11.4655 9.14339
Au 23.6819 7.76851 15.0108
Pd 26.3058 10.6248 15.1363
Au 25.6995 5.83858 17.5018
Pd 25.7147 12.1448 12.9605
Au 23.7993 7.61943 17.7708
Pd 24.0638 10.0667 16.5812
Au 25.9614 8.43963 13.5619
Pd 23.8587 13.8198 17.7278
Au 23.3636 8.89676 20.2202
Pd 22.6432 7.77294 23.7852
Au 24.8802 8.32724 22.3593
Pd 26.0555 8.2182 16.3439
Pd 21.1881 12.6421 5.72543
Au 22.26 12.2732 3.36386
Au 22.0309 11.0902 7.84793
Pd 22.5329 13.3466 9.37598
Au 23.8338 12.9879 6.92959
Pd 22.9924 14.3972 4.79366
Au 23.2569 11.785 11.573
Pd 23.6811 14.0272 13.1535
Au 23.2023 10.8126 5.42707
Pd 25.0682 13.6288 10.7917
Au 24.3263 12.4952 15.3319
Pd 21.742 15.7187 17.933
Au 26.8906 13.3002 15.2745
Pd 24.8622 15.1746 15.469
Au 23.6397 11.3753 18.9953
Pd 23.108 12.6994 21.3929
Au 25.6789 9.4887 18.7827
Pd 25.4111 13.2544 19.9189
Au 22.838 10.2279 22.6047
Pd 22.4172 11.4987 24.9857
Au 24.3782 9.67814 24.5951
Pd 25.1397 10.7893 21.2091
Pd 22.1128 18.5494 6.64955
Au 21.3163 16.4739 4.97689
Au 21.8144 14.8661 7.19467
Pd 22.4646 17.0129 8.79952
Au 24.5113 15.1005 8.59671
Pd 23.7698 16.4841 6.44839
Au 23.0766 15.5278 10.9705
Pd 26.2735 14.8288 13.1118
Au 27.4006 15.9692 15.396
Pd 25.6739 16.3108 10.9207
Au 22.8372 17.0854 15.6564
Pd 24.4082 16.4841 17.8616
Au 26.4935 14.6098 17.6664
Pd 25.5018 17.8563 15.6069
Au 23.3533 15.1394 20.1041
Pd 22.755 16.4618 22.4357
Au 24.9283 14.5841 22.3003
Pd 25.9526 15.9412 20.0341
Au 22.6356 13.9649 23.8389
Pd 22.2797 17.77 24.8514
Au 24.6549 12.1251 23.5525
Pd 24.2439 15.9821 24.5241
Pd 21.7941 22.1227 9.09842
Au 23.3138 19.8468 8.80982
Au 21.8314 20.3088 11.1787
Pd 22.9284 21.3458 13.5276
Au 25.0363 17.7789 8.72232
Pd 24.4043 20.9911 11.1947
Au 23.6703 18.2663 11.052
Pd 24.906 19.3827 13.3921
Au 26.8221 17.474 13.1953
Pd 26.1705 18.9464 11.0261
Au 27.3847 19.8598 17.9841
Pd 24.8782 19.1378 17.9883
Au 27.0106 17.2692 17.8205
Pd 24.2616 16.7211 13.2684
Au 22.2711 18.4213 18.0381
Pd 20.27 21.9434 20.4632
Au 25.396 17.2436 22.3627
Pd 23.857 17.829 20.2355
Au 21.9118 19.7841 20.4898
Pd 22.0383 21.3528 22.6956
Au 23.4984 19.094 22.7138
Pd 26.4282 18.5893 20.1482
Pd 20.7836 25.2111 11.9113
Au 20.3997 25.9154 14.5911
Au 21.1371 23.3845 13.7474
Pd 21.1661 23.1535 18.2565
Au 23.7759 23.9448 13.7172
Pd 24.1689 22.3573 15.9055
Au 19.6373 23.7425 16.0295
Pd 23.7096 23.785 18.2054
Au 25.5155 21.9564 13.5336
Pd 22.3484 24.3441 15.958
Au 26.0925 20.4784 15.7526
Pd 25.5354 21.7474 18.198
Au 24.5659 20.4919 20.4572
Pd 21.4813 21.6896 15.9271
Au 19.452 24.469 20.0761
Pd 16.7835 26.7876 19.3958
Au 21.0265 23.8302 22.3244
Pd 22.8799 22.6168 20.4582
Au 20.3 26.3032 21.8573
Pd 18.2708 23.2911 22.2398
Au 18.9409 25.1566 23.9518
Pd 21.9779 25.1212 20.0302
