665
Atoms. Timestep: 20503
Pd 11.138 13.99 10.5303
Pd 3.65976 15.964 16.1269
Pd 11.4971 11.0164 17.6199
Pd 9.03838 9.7554 17.7106
Pd 7.9783 16.3814 18.9149
Au 4.80245 16.8065 7.34811
Au 12.6493 9.3884 10.8405
Pd 9.69544 12.3326 8.30432
Au 12.2136 4.57822 21.9363
Pd 7.27175 11.5117 12.9727
Au 12.4993 6.57493 19.6682
Pd 7.03792 21.9356 17.2171
Au 7.04385 22.8619 21.9192
Pd 7.15438 23.7685 19.1714
Au 9.1206 25.4535 12.1512
Pd 10.1265 9.90247 9.63571
Au 5.80098 14.738 9.43963
Au 5.11491 11.2908 11.3822
Pd 11.6107 7.0558 9.8858
Au 11.3723 5.41677 17.5007
Pd 5.28118 16.7303 19.0292
Au 5.3151 22.5475 15.2122
Pd 11.618 18.9385 15.7175
Au 13.0579 17.4338 17.4104
Pd 7.03263 18.005 23.3155
Au 10.9485 26.8467 18.3137
Pd 10.6335 12.2831 22.1914
Au 4.92491 16.1609 12.2658
Au 7.19532 7.70854 9.45438
Pd 12.0754 11.6599 9.55305
Au 5.9575 11.7253 7.02779
Pd 7.41372 8.36916 15.5762
Au 11.4426 19.6561 18.2415
Pd 3.56749 19.8224 14.8507
Au 7.45489 20.9684 23.8922
Pd 14.2762 23.9887 20.1549
Au 23.3138 7.13064 21.1606
Pd 15.451 18.5685 24.7676
Au 3.87445 18.7433 12.2214
Au 2.52573 16.4061 11.4311
Pd 5.91746 12.2454 15.402
Au 3.95213 12.2231 13.6135
Pd 8.61982 18.7635 14.6428
Au 6.60695 5.95346 16.7382
Pd 6.94386 18.4284 20.6153
Au 4.40105 12.4422 20.5417
Pd 11.4963 24.2351 18.8617
Au 8.70321 12.8083 24.0803
Pd 6.87722 11.3962 19.6186
Au 7.85164 20.6374 6.37129
Au 5.07031 17.5723 14.5088
Pd 7.59363 13.9123 7.23582
Au 2.49163 17.3588 14.0305
Pd 6.67579 18.8644 12.6798
Au 9.53068 22.4751 18.3494
Pd 13.6663 19.8625 12.013
Au 4.36233 20.998 17.3081
Pd 5.93053 14.6806 16.9284
Au 9.21838 18.8192 19.4102
Pd 14.2359 23.0394 22.7652
Pd 9.62658 7.46641 13.933
Pd 17.8055 11.4408 10.9549
Pd 15.2214 8.77884 4.94078
Pd 14.2796 7.77601 9.27251
Pd 9.24371 6.9228 16.5339
Pd 8.55668 15.2252 16.4616
Pd 16.7999 6.55635 13.2278
Pd 10.9796 25.9806 20.842
Pd 8.10856 11.3498 21.9686
Pd 10.3191 4.87868 15.0507
Pd 3.84975 10.6393 16.1701
Pd 11.3714 11.7901 4.52397
Au 5.48347 9.93222 9.07441
Au 4.83341 14.1609 6.97672
Pd 14.5426 11.2856 10.9686
Au 16.1542 11.036 6.24763
Pd 12.983 13.1835 2.64783
Au 7.70261 8.90504 13.0535
Pd 7.00835 8.01307 18.3333
Au 4.8811 8.13148 16.4957
Pd 14.2396 10.5464 8.16224
Au 4.20472 18.3488 17.0901
Pd 3.44844 13.3611 16.0024
Au 6.00006 7.84549 20.8204
Pd 13.2871 9.70739 13.4902
Au 9.08169 10.2576 24.6928
Pd 11.1824 10.2262 26.2076
Au 10.4767 24.7742 23.2157
Pd 4.9585 23.5623 17.6709
Au 7.84914 12.66 17.4366
Pd 6.7162 15.9508 21.3156
Au 24.7436 9.78067 16.4988
Pd 14.0542 7.16121 25.325
Pd 4.96542 17.5039 9.9487
Au 21.0695 18.3647 3.65673
Au 5.66246 7.13621 13.9882
Pd 9.98538 12.0998 13.7304
Au 10.5423 14.1611 3.42131
Pd 17.2526 13.5345 4.29416
Au 9.59172 17.6409 16.9835
Pd 8.32392 10.9086 15.355
Au 6.51856 11.2641 24.1528
Pd 7.67283 10.0085 10.6944
Au 4.24942 15.0548 21.1731
Pd 11.7615 22.1694 16.6504
Au 12.1491 11.9474 12.2208
Pd 9.36056 16.6496 21.2913
Au 13.5075 14.0331 15.8492
Pd 9.29078 23.8902 20.692
Au 13.9582 13.9246 20.5918
Pd 24.6647 12.3978 23.1118
Au 16.8677 15.4639 27.5831
Pd 9.66142 14.3002 18.6884
Au 11.0348 7.11061 21.8173
Pd 8.22047 9.23365 20.3806
Pd 15.1617 21.5042 5.50186
Au 17.6159 14.37 1.75268
Au 6.61532 15.7367 5.62434
Pd 10.4328 9.82096 12.4958
Au 8.60114 14.4057 9.65791
Pd 9.2135 16.2933 4.40669
Au 12.3908 3.83462 19.3275
Pd 3.87532 13.8424 11.3748
Au 9.12084 20.3133 16.8088
Pd 9.22015 17.6534 12.243
Au 6.78242 17.2641 16.5549
Pd 6.14806 19.8066 15.5509
Au 12.7921 16.5652 14.6343
Pd 12.9475 21.0205 14.2978
Au 11.8865 23.4311 21.3677
Pd 6.21862 13.3738 22.3941
Au 2.75957 14.7615 13.6838
Pd 11.2337 19.8239 23.6352
Au 10.6509 23.9151 25.76
Pd 9.7908 5.02746 22.9518
Au 5.78525 20.3505 21.9438
Pd 13.9264 12.7301 25.1593
Pd 9.4084 16.1834 7.01973
Au 12.5285 21.0726 4.8712
Au 4.26432 12.4891 9.03676
Pd 5.32553 14.583 14.3289
Au 7.64164 18.0824 5.85133
Pd 14.8939 14.9778 1.51019
Au 7.27618 16.4046 11.0889
Pd 7.40522 16.3016 13.9049
Au 4.42058 19.3148 19.6794
Pd 7.95058 10.1122 7.96501
Au 7.27266 6.39989 11.8724
Pd 13.1653 27.0875 16.8825
Au 6.58686 13.8083 11.9301
Pd 12.9242 24.8224 24.557
Au 6.67852 19.4367 18.1916
Pd 11.1471 19.2813 26.2827
Au 16.0622 20.8185 26.275
Pd 15.4716 17.2242 18.3493
Au 7.5834 16.6253 25.6641
Pd 11.9984 8.4577 24.2274
Au 12.7821 12.0623 27.4426
Pd 12.7707 15.2104 25.099
Pd 5.45479 20.1166 10.4892
Au 9.1604 18.9516 8.00964
Au 7.66598 21.3969 14.2193
Pd 9.24014 20.2665 12.1898
Au 9.92911 21.4949 5.03896
Pd 7.83339 18.9566 10.2404
Au 6.1203 19.1694 7.96954
Pd 12.7016 20.7623 9.50695
Au 7.26596 16.7648 8.35426
Pd 9.23032 14.6908 12.3813
Au 13.7501 25.7111 10.6286
Pd 11.495 18.7923 13.1897
Au 14.4436 18.8588 14.6641
Pd 12.6936 16.1336 9.81816
Au 12.9095 21.8863 19.0708
Pd 15.557 26.6743 18.1115
Au 6.54387 13.9405 25.1489
Pd 9.07496 25.0528 17.8126
Au 8.63743 13.9256 21.1947
Pd 13.8587 20.6764 24.3864
Au 13.2854 26.4557 19.5335
Pd 8.94785 19.4603 22.158
Pd 8.35566 11.7202 5.79603
Pd 14.9026 13.3929 6.63334
Pd 9.2404 5.68138 9.64737
Pd 14.5153 12.423 13.4589
Pd 14.0948 6.834 13.9115
Pd 15.8914 8.28924 15.1713
Pd 17.0548 11.6035 17.646
Pd 12.2931 4.82797 13.1618
Pd 9.53906 7.51446 24.0565
Pd 8.36993 6.81231 21.64
Pd 5.53478 8.55657 11.5443
Pd 13.0025 9.8661 5.76028
Au 11.5701 4.51154 10.5355
Au 16.285 12.1598 8.82682
Pd 18.685 11.5455 5.19813
Au 10.373 10.3152 6.63009
Pd 18.0536 9.0177 5.59459
Au 10.6597 9.63246 15.241
Pd 17.8062 8.58859 11.6568
Au 14.682 4.57451 17.9831
Pd 15.4835 4.15807 10.1951
Au 9.76965 5.33163 12.3339
Pd 4.88603 12.2935 17.9717
Au 5.56241 10.3643 21.7492
Pd 14.4995 4.79376 20.6825
Au 3.72129 14.5885 18.5594
Pd 10.8083 9.36672 19.8733
Au 16.6014 5.59307 22.0283
Pd 18.1309 13.5531 21.6644
Au 5.37308 15.8178 23.6718
Pd 11.1316 12.8155 25.3709
Au 6.38605 10.2794 17.12
Pd 18.7439 6.95891 22.9004
Pd 16.2817 14.8417 8.53836
Au 18.9083 15.6916 5.11683
Au 15.6695 12.5508 2.26416
Pd 12.366 12.1907 7.02297
Au 18.49 11.9101 2.45436
Pd 23.2404 17.5477 5.41945
Au 15.9812 13.5178 11.1821
Pd 11.2923 8.1879 17.5073
Au 13.906 6.95639 17.1282
Pd 13.4105 14.3669 11.8464
Au 12.8201 9.29858 21.6197
Pd 11.0248 16.7041 19.1064
Au 4.79804 9.67308 19.1466
Pd 14.4013 14.2966 27.3249
Au 15.0571 14.5622 18.1448
Pd 13.8355 6.9608 22.2655
Au 5.34619 9.8303 14.1239
Pd 13.2391 9.17942 18.8436
Au 12.4031 11.6561 20.1846
Pd 11.3109 15.4693 16.6646
Au 4.66777 17.6897 21.823
Pd 18.9872 14.8644 25.9266
Pd 12.6147 15.8311 2.99312
Au 16.952 18.7928 2.29898
Au 12.2258 18.5103 3.70197
Pd 6.98522 12.2565 9.48044
Au 15.2876 16.0671 10.5663
Pd 13.7829 15.9024 7.27481
Au 9.33043 12.103 11.1171
Pd 10.2761 12.9888 16.2667
Au 13.8376 13.6495 9.18274
Pd 14.8689 14.489 4.07519
Au 14.2829 11.5135 22.3147
Pd 11.5894 14.1677 13.9432
Au 7.98492 13.6612 14.5178
Pd 12.4435 11.7214 15.123
Au 8.35952 23.5476 24.2903
Pd 12.8738 20.9336 21.7563
Au 6.41459 14.0666 19.4951
Pd 8.03623 15.4071 23.4588
Au 13.7738 9.95677 26.0376
Pd 10.495 14.7779 23.6402
Au 13.25 16.8302 27.2249
Pd 12.194 16.4303 22.5248
Pd 18.4736 18.2762 4.43394
Au 16.8671 16.6776 0.803064
Au 15.3326 23.9976 6.48056
Pd 16.6709 16.3571 3.45024
Au 14.2904 17.0581 4.75925
Pd 15.2816 20.1711 7.91686
Au 16.1494 18.8515 5.6085
Pd 10.064 13.7341 5.99238
Au 10.0625 16.434 14.5027
Pd 10.2581 18.8323 5.5213
Au 11.2916 14.5638 20.8032
Pd 7.8849 21.1351 20.1165
Au 9.90215 16.664 9.73225
Pd 15.3599 21.0263 10.4481
Au 10.5913 21.1045 20.3803
Pd 12.8353 13.7122 22.9535
Au 17.0207 23.8669 25.9273
Pd 17.5604 15.8557 17.092
Au 8.66578 19.0201 25.2782
Pd 13.7705 18.5977 22.4274
Au 9.10065 14.4793 26.1273
Pd 7.19879 23.9655 13.6438
Pd 11.632 17.8101 7.93041
Au 11.5686 23.3045 6.167
Au 7.99582 13.9023 4.38314
Pd 3.33426 15.3052 9.1052
Au 11.2661 18.781 10.5772
Pd 18.1595 24.5461 9.68585
Au 11.6509 16.5176 5.52323
Pd 7.00777 24.4632 16.2666
Au 5.12219 21.043 13.0494
Pd 7.38358 21.3461 8.93973
Au 13.3812 19.0548 6.38799
Pd 9.22454 23.065 15.7338
Au 9.18687 25.4976 14.7653
Pd 13.8023 20.2188 16.9558
Au 11.5935 25.9639 13.3678
Pd 16.903 18.4455 16.2378
Au 8.91082 23.5089 10.139
Pd 11.398 24.3288 11.2661
Au 13.747 19.5259 26.8448
Pd 13.6673 19.2248 19.6431
Au 11.3121 25.0969 16.3002
Pd 11.611 23.4286 14.237
Pd 16.394 6.55849 10.5691
Pd 16.2355 9.58206 9.80678
Pd 7.83167 5.62982 14.4303
Pd 13.1463 4.68261 15.6359
Pd 15.6453 5.45714 15.5433
Pd 9.37912 7.82036 11.1347
Pd 15.1561 4.44708 13.0194
Pd 16.6331 6.71887 17.7737
Pd 7.44523 8.90675 23.0009
Pd 16.2669 8.92972 26.057
Pd 12.3071 13.6946 18.353
Pd 20.0906 8.55111 7.4809
Au 9.48454 7.85179 8.01503
Au 16.0916 8.5084 7.34417
Pd 11.1747 7.88685 5.8487
Au 13.6646 7.18816 6.66706
Pd 16.334 10.3475 13.0663
Au 12.1175 8.94632 8.10805
Pd 13.2835 9.32479 16.0908
Au 8.83224 4.594 17.6185
Pd 18.3774 8.52057 14.1828
Au 13.8099 5.95855 11.2793
Pd 18.8884 11.6828 19.8587
Au 17.682 4.46265 11.7425
Pd 24.6045 9.90693 21.2481
Au 16.9437 4.61901 19.5389
Pd 9.52838 7.11722 19.1885
Au 9.99874 4.79262 20.2363
Pd 17.4288 9.5475 19.4553
Au 20.629 7.03294 20.9709
Pd 12.2149 10.9844 23.8529
Au 14.7116 9.10618 23.6589
Pd 14.5029 4.9721 23.6549
Pd 18.1987 17.7849 7.0778
Au 22.7111 8.62548 7.25173
Au 18.1904 6.58701 6.71598
Pd 14.2653 11.8003 4.50577
Au 15.2919 10.9485 15.4906
Pd 19.8992 14.0028 3.21296
Au 13.431 5.16036 8.70264
Pd 26.5068 10.9737 14.3633
Au 19.3912 6.36709 10.8939
Pd 15.5866 9.24454 17.6166
Au 11.9697 5.8559 24.2252
Pd 15.0807 10.2353 20.2116
Au 18.0398 7.0792 20.0916
Pd 20.5918 13.832 20.5988
Au 16.5209 13.6361 25.625
Pd 9.62724 11.7772 19.5729
Au 19.0692 8.05341 25.4335
Pd 17.0729 11.1059 21.9304
Au 19.1918 4.80324 20.9482
Pd 15.3088 16.0208 25.3987
Au 23.9502 7.83613 11.7319
Pd 19.2216 9.36115 21.5675
Pd 19.6696 20.5533 4.69635
Au 16.3867 15.8009 6.06882
Au 18.0071 23.9017 7.00469
Pd 16.6459 10.5822 3.69911
Au 17.1712 20.832 3.89401
Pd 20.3402 23.1515 13.5318
Au 20.583 12.0933 10.7168
Pd 15.305 14.9497 13.5454
Au 14.8648 16.1687 22.759
Pd 16.3028 15.4427 20.5192
Au 16.1321 13.5236 15.8092
Pd 18.8015 16.1479 21.3252
Au 20.3166 18.6921 19.7367
Pd 17.9637 17.4613 19.1664
Au 20.4822 16.0605 18.8915
Pd 25.874 12.1288 20.6917
Au 15.6909 13.602 22.8956
Pd 13.5194 16.5298 20.1463
Au 12.2363 21.7526 26.479
Pd 18.0846 26.7868 19.1719
Au 13.3618 25.6541 22.141
Pd 24.149 16.901 21.8226
Pd 11.1946 20.6785 7.29424
Au 14.621 19.7389 3.5418
Au 14.5335 17.5337 2.04616
Pd 17.8582 16.7669 9.56286
Au 19.2085 16.5881 2.46967
Pd 20.2954 22.4321 6.47131
Au 15.1813 16.3139 15.8591
Pd 11.4241 16.2312 12.1295
Au 17.7025 15.5428 11.9646
Pd 16.0929 20.8902 15.6964
Au 18.3339 14.2286 18.9924
Pd 10.3585 20.9686 14.4785
Au 25.2783 14.5539 21.4378
Pd 15.7097 26.1634 20.9142
Au 11.894 22.4558 23.945
Pd 16.0312 24.5072 13.8028
Au 15.7759 17.9134 27.3609
Pd 13.8271 18.4543 9.57594
Au 18.2359 25.9118 21.6155
Pd 18.4385 12.372 24.084
Au 17.9953 19.8434 24.6081
Pd 13.7689 24.5383 17.5794
Pd 18.3643 24.4673 12.3654
Au 13.2196 24.8182 7.96059
Au 15.712 25.2345 8.84522
Pd 20.0824 22.944 10.8821
Au 19.4901 17.8864 16.8966
Pd 9.9046 21.005 9.73717
Au 17.6588 19.608 9.12318
Pd 11.7236 21.6894 11.8742
Au 11.3284 23.1481 8.88209
Pd 26.8279 17.6485 12.1392
Au 5.36639 21.8429 19.6939
Pd 13.6307 25.3105 14.9828
Au 7.1896 21.9296 11.5473
Pd 22.3883 21.7847 14.6177
Au 9.48026 22.951 12.7518
Pd 9.98738 17.4462 23.7092
Au 17.8775 26.844 16.5218
Pd 9.62368 22.0229 22.6153
Au 11.654 14.5119 27.4007
Pd 18.6245 24.5911 15.1752
Au 18.4232 24.2523 23.629
Pd 16.2296 24.6573 16.4309
Pd 20.8741 10.7248 6.32021
Pd 11.8459 7.41406 12.5163
Pd 18.2135 10.438 7.93954
Pd 18.1338 6.40076 15.7128
Pd 19.5793 5.94369 13.5581
Pd 18.0068 10.9831 15.1863
Pd 11.8775 7.05804 15.2111
Pd 22.1206 9.78007 17.1995
Pd 20.511 11.6084 22.1677
Pd 15.1163 7.31971 19.7992
Pd 19.452 5.77157 18.2212
Pd 20.2779 6.1611 8.41911
Au 20.9078 11.5438 3.74423
Au 18.0024 4.90984 9.06048
Pd 21.7374 7.90204 9.86945
Au 15.8587 5.88316 7.90022
Pd 24.3483 10.6893 7.50601
Au 11.193 5.87418 7.57768
Pd 14.9751 8.38119 11.9334
Au 21.9282 6.09945 12.0184
Pd 19.6836 9.61432 10.0991
Au 21.0784 8.21558 23.3532
Pd 24.6817 5.19275 16.3176
Au 21.7247 4.90763 19.8734
Pd 20.3738 8.29933 12.4084
Au 17.443 4.10438 17.0332
Pd 20.3092 10.4032 24.5496
Au 16.1913 12.6735 19.9067
Pd 16.4485 8.35216 21.8334
Au 18.009 12.9824 27.6606
Pd 21.8018 7.24021 18.5462
Au 25.8112 7.64255 20.3516
Pd 24.0289 11.3298 18.8543
Pd 21.5917 14.2333 9.47922
Au 17.8165 13.4337 6.90543
Au 12.6149 14.1029 5.25125
Pd 24.5385 11.0187 12.1755
Au 22.9536 17.16 14.3901
Pd 20.5666 16.091 13.5732
Au 14.1968 11.7589 17.8682
Pd 17.3719 12.8915 13.4144
Au 18.7385 13.4201 16.3055
Pd 18.5149 13.8922 9.93808
Au 19.9722 9.00066 18.9305
Pd 20.8294 12.426 14.956
Au 20.547 9.68978 15.0761
Pd 24.6818 12.871 14.1018
Au 21.9612 9.44363 20.8946
Pd 25.0585 13.7333 18.6741
Au 15.9759 20.1463 22.6264
Pd 17.5248 15.2484 23.7105
Au 22.8704 10.2519 23.2476
Pd 18.1972 10.7358 26.2582
Au 7.28077 5.64861 19.485
Pd 17.8252 9.47198 23.8207
Pd 16.2318 22.6137 8.56996
Au 22.7073 18.9387 7.8153
Au 17.6369 21.1253 6.54012
Pd 13.8244 17.2904 12.3123
Au 16.0726 18.5861 11.0997
Pd 15.7286 17.5468 8.084
Au 19.9842 12.444 8.16849
Pd 22.3967 12.6896 12.5846
Au 20.9635 13.5138 17.874
Pd 22.0809 21.6829 11.8499
Au 26.3716 9.99614 18.9146
Pd 11.3956 18.5676 21.1103
Au 16.7441 24.4724 19.1054
Pd 20.4794 15.5379 16.1333
Au 21.6359 14.9689 25.3244
Pd 12.8093 17.8681 24.7763
Au 27.3024 15.0439 12.2464
Pd 18.4636 21.639 22.539
Au 24.1326 5.87991 18.8896
Pd 24.751 19.423 20.9442
Au 16.0106 11.2228 24.5772
Pd 17.9165 19.6434 20.7693
Pd 19.8114 20.5634 12.9976
Au 20.5081 24.1983 8.45875
Au 20.1686 20.2201 10.3277
Pd 20.4855 25.478 10.9464
Au 19.8116 13.736 12.6834
Pd 15.2877 21.7739 13.1115
Au 16.3607 17.3492 13.535
Pd 17.0868 19.8563 13.378
Au 18.6998 18.3067 11.6255
Pd 18.5668 20.066 18.1161
Au 21.3597 16.4198 21.6754
Pd 17.8238 21.5534 11.3373
Au 22.8657 22.039 17.365
Pd 16.037 19.8125 18.5158
Au 27.4171 9.44276 16.4165
Pd 15.347 22.371 17.97
Au 22.1478 24.5364 15.1874
Pd 20.2598 14.1172 23.2389
Au 10.5828 16.6646 26.1379
Pd 17.6189 21.9995 19.6402
Au 19.9885 19.951 7.38885
Pd 19.7925 16.5529 23.966
Pd 21.0933 20.1243 17.2137
Au 20.5188 25.7274 19.8683
Au 22.4475 24.4261 12.5758
Pd 16.6374 23.5999 21.6495
Au 16.5619 26.2256 11.3076
Pd 15.7906 18.0826 20.8035
Au 9.19809 22.6493 7.41891
Pd 11.4503 14.6747 7.97118
Au 24.4726 23.2783 15.5069
Pd 9.75244 21.4425 25.3295
Au 14.318 22.8545 15.495
Pd 13.5679 22.1664 7.45377
Au 22.0624 20.0821 5.55699
Pd 20.3324 25.8905 13.5927
Au 22.7417 17.6074 19.6494
Pd 18.8847 20.4095 15.5169
Au 14.4622 23.0319 25.694
Pd 18.8723 17.9756 14.2883
Au 19.0944 24.6412 17.8999
Pd 17.8131 22.4894 16.9343
Au 15.5884 11.6548 27.2539
Pd 22.5339 20.4069 19.5206
Pd 18.086 7.77467 9.00314
Pd 22.1469 10.0505 11.6705
Pd 21.795 10.4896 8.79205
Pd 24.0877 9.44996 9.77547
Pd 27.0392 16.434 15.1261
Pd 22.1082 4.98567 17.2425
Pd 24.7719 17.1473 16.4413
Pd 23.1473 12.4739 16.5846
Pd 17.6136 4.12267 14.3342
Pd 22.9685 14.6348 22.8782
Pd 25.8713 12.1229 16.7128
Pd 22.7274 13.3525 4.42008
Au 23.1049 10.582 5.12422
Au 24.9603 12.3278 5.30496
Pd 21.4506 11.4179 19.3095
Au 25.9733 11.3587 9.81665
Pd 23.4051 12.1813 9.91046
Au 19.5268 10.8743 12.8982
Pd 22.4006 8.02084 13.994
Au 24.4437 14.8702 6.00185
Pd 21.5541 15.7841 4.36088
Au 22.0223 5.34529 14.6504
Pd 25.7477 12.8998 7.67148
Au 27.6202 12.4158 18.7238
Pd 26.4727 9.45438 11.6539
Au 27.2254 13.7127 14.5334
Pd 26.4228 6.99008 12.5141
Au 24.342 6.06719 13.7885
Pd 20.6278 7.21701 16.1001
Au 25.9645 7.45296 17.6973
Pd 24.9253 16.3174 19.0273
Au 27.2404 14.98 19.7177
Pd 25.0009 8.82638 13.9833
Pd 20.1775 15.9305 10.8902
Au 20.3884 17.8124 9.01683
Au 22.7824 12.7949 7.14642
Pd 19.5312 15.3994 7.85186
Au 20.5044 13.6003 5.81225
Pd 21.2189 19.1428 14.7653
Au 23.0105 10.6978 14.4674
Pd 24.87 13.7778 11.4754
Au 20.6913 17.6422 6.16809
Pd 22.1631 15.6227 7.16128
Au 27.0463 12.2701 12.133
Pd 22.9502 14.7976 20.0718
Au 26.6009 19.198 16.3958
Pd 27.1308 17.1427 17.9273
Au 22.5961 14.4984 14.7103
Pd 24.1649 14.5682 8.85918
Au 26.4653 6.96104 15.2062
Pd 22.9992 12.3428 21.2199
Au 17.8363 17.3301 25.7308
Pd 18.2402 8.82465 16.8916
Au 19.7184 18.7875 22.5584
Pd 10.1384 9.59522 22.4136
Pd 22.8011 19.523 10.4127
Au 21.8299 21.6415 8.66933
Au 21.3541 18.1739 12.1446
Pd 24.1445 17.6116 11.8854
Au 25.7469 16.1916 10.2241
Pd 22.6589 15.3043 11.9773
Au 22.804 16.794 9.69335
Pd 23.4492 7.41654 16.3506
Au 27.8398 8.78756 13.8439
Pd 25.4206 18.3717 14.1683
Au 25.6556 20.1239 11.9536
Pd 20.307 18.6809 25.2967
Au 22.3548 19.0405 22.09
Pd 24.514 19.0418 18.2882
Au 27.5278 14.5357 17.1064
Pd 19.74 11.1202 17.2653
Au 19.8657 4.38085 15.8803
Pd 25.0939 14.6083 16.0554
Au 22.1805 12.5205 24.2678
Pd 16.4262 22.2594 24.0495
Au 16.4767 6.96097 24.3095
Pd 23.8842 8.70411 18.9282
Pd 20.3666 22.7007 16.1248
Au 26.5969 15.3794 7.71672
Au 24.2918 21.6515 10.1923
Pd 18.8623 22.0463 8.76695
Au 24.6437 17.0795 7.65812
Pd 23.3514 19.8017 13.1917
Au 25.2424 18.8285 9.65729
Pd 25.5686 21.0127 14.5688
Au 28.4193 11.9611 16.1803
Pd 25.033 15.6071 13.5122
Au 24.75 21.8329 19.7965
Pd 22.946 15.2214 17.4326
Au 21.0068 20.7912 23.8611
Pd 23.6731 19.7366 15.9167
Au 18.0624 15.3491 14.5632
Pd 19.2804 23.6644 20.7737
Au 19.0644 22.2141 25.1677
Pd 20.8478 23.2034 22.8159
Au 15.7113 25.0362 23.757
Pd 17.272 17.7321 22.9658
Au 20.2457 12.6001 26.1043
Pd 22.1603 17.7007 17.0089
Pd 13.7342 23.1248 10.0557
Au 14.5318 26.6604 12.9408
Au 20.2347 22.2279 18.6978
Pd 15.1984 21.4337 20.5371
Au 24.4051 23.9068 18.194
Pd 22.2403 23.2505 20.159
Au 16.0566 23.6274 11.1998
Pd 22.3683 17.206 24.029
Au 26.5849 17.5025 20.6003
Pd 17.772 22.3706 14.0372
Au 26.811 19.7429 19.1106
Pd 22.5716 23.7565 10.0918
Au 27.052 13.8242 9.84388
Pd 25.4965 21.4554 17.2827
Au 20.5437 21.1019 21.1082
Pd 17.6219 26.6763 13.7837
Au 24.3973 22.5498 12.7671
Pd 21.7989 24.5012 17.829
Au 23.1032 21.5915 22.0434
Pd 13.6626 23.8499 12.6635
Au 15.5088 27.125 15.4034
Pd 20.4395 26.2559 16.2809
