665
Atoms. Timestep: 20788
Pd 22.0828 10.0355 10.7654
Pd 20.4788 7.69175 20.9967
Pd 19.8952 9.66892 15.7037
Pd 5.16874 13.1583 21.0772
Pd 17.1232 11.7487 27.1419
Au 17.0798 16.8216 6.84626
Au 14.0917 16.0434 17.0422
Pd 22.9345 18.4567 24.1047
Au 16.0454 9.14164 13.4637
Pd 4.91282 9.04816 17.4163
Au 3.23161 16.6336 15.8324
Pd 18.2449 8.70637 19.9761
Au 11.7281 24.4668 15.7267
Pd 19.0458 12.3918 12.6504
Au 2.92861 19.1827 15.3661
Pd 20.0096 24.2776 13.5258
Au 17.9815 10.2936 22.4088
Au 17.4153 13.0326 4.42333
Pd 21.9727 15.4624 12.1348
Au 9.25078 4.19594 17.3428
Pd 5.53543 15.2836 15.0513
Au 22.1151 12.5906 25.0809
Pd 18.8637 21.252 18.8528
Au 20.6751 24.2407 22.6578
Pd 14.3686 13.2467 16.4671
Au 23.7367 13.2224 17.6893
Pd 14.9677 11.2242 14.7983
Au 19.3324 27.215 19.2021
Au 6.89271 21.4721 19.0934
Pd 19.8406 6.43037 8.75886
Au 11.6971 3.58774 18.6519
Pd 16.0636 6.85866 20.1478
Au 8.93642 15.2601 3.38839
Pd 21.5407 21.9757 10.0956
Au 17.3812 11.4227 19.9321
Pd 11.3681 16.5089 3.29777
Au 27.4519 13.7828 10.9606
Pd 9.10636 23.3903 9.45913
Au 26.8765 19.9644 17.93
Au 17.1035 25.8573 14.3549
Pd 18.9277 5.36266 12.927
Au 15.7845 23.8183 19.107
Pd 10.7786 24.1749 7.41756
Au 17.5594 10.5446 8.54946
Pd 16.0421 11.6065 6.50714
Au 7.26311 11.8896 5.59676
Pd 14.6237 19.189 12.7724
Au 26.6227 16.0752 15.6554
Pd 16.6999 16.7998 17.8313
Au 26.8904 18.4031 20.0543
Au 14.8673 22.3484 16.8286
Pd 21.3654 18.9968 14.8169
Au 17.5877 15.0739 13.3105
Pd 11.3684 10.6392 12.6288
Au 9.1469 12.4473 12.0997
Pd 21.9625 16.398 14.7489
Au 18.9997 13.1966 18.4655
Pd 11.4171 9.33846 20.6769
Au 19.9257 3.47624 15.4787
Pd 13.4882 24.5429 17.7285
Pd 17.1389 7.11614 11.9847
Pd 20.8938 15.1559 17.6542
Pd 15.1536 18.4054 16.1877
Pd 9.43891 18.4688 27.2268
Pd 10.8067 9.97651 23.2464
Pd 12.5118 6.08718 14.0037
Pd 8.38283 7.76959 14.793
Pd 13.5586 19.3178 5.68546
Pd 7.64133 14.7014 12.1199
Pd 5.80958 7.70682 15.368
Pd 13.5552 17.1352 14.5229
Pd 9.98114 11.7075 14.6537
Au 13.9014 10.4047 2.66171
Au 12.0636 7.67969 16.1465
Pd 18.9315 20.2675 4.36391
Au 24.3971 13.451 23.8446
Pd 19.1553 12.7054 25.4784
Au 8.80095 7.89734 23.7153
Pd 18.7927 10.0642 25.4405
Au 7.23069 14.4567 17.1028
Pd 16.6971 11.371 24.5912
Au 16.3458 16.0205 4.26583
Pd 20.0732 9.01746 8.80509
Au 11.2758 24.8135 10.1233
Pd 13.2723 17.6866 18.9513
Au 18.2193 14.141 27.6155
Pd 3.49886 14.0335 16.5412
Au 23.2208 22.4373 16.6518
Pd 14.6683 19.682 2.83951
Au 20.846 20.0118 20.1965
Pd 21.9058 24.4277 15.3767
Au 11.9949 3.55321 14.1546
Pd 19.029 18.2682 25.3606
Pd 16.8593 17.9603 13.4308
Au 18.3598 18.1114 9.03088
Au 23.4632 18.7489 19.5734
Pd 11.6515 6.62716 18.8282
Au 15.9207 3.96119 16.8495
Pd 10.7486 19.9656 14.8485
Au 22.478 12.2947 22.0039
Pd 21.5528 16.5201 5.15157
Au 12.0435 4.77242 20.943
Pd 13.9475 11.4086 12.3446
Au 13.9986 20.113 17.8824
Pd 13.0537 8.62351 22.705
Au 17.8434 23.0387 20.6829
Pd 19.7102 11.1333 10.2603
Au 4.35273 11.5711 9.31889
Pd 22.2145 9.30823 14.6021
Au 18.0064 16.2501 2.21146
Pd 11.9124 15.5287 20.5435
Au 20.9125 12.6766 2.60114
Pd 12.2784 17.0155 25.4638
Au 18.909 10.4649 17.9733
Pd 24.2334 20.0409 17.3586
Pd 8.14399 23.7356 18.4293
Au 3.66497 11.3266 17.0995
Au 3.22848 12.259 14.5334
Pd 12.1159 20.0025 10.4078
Au 20.7061 14.1156 23.4189
Pd 6.98294 15.6472 22.5142
Au 25.7931 14.9904 18.2801
Pd 10.4693 15.789 8.15939
Au 14.8568 24.6709 12.724
Pd 23.6176 10.9235 12.9817
Au 15.1242 15.9358 8.83311
Pd 21.4996 11.3776 17.2508
Au 13.8759 21.067 23.2046
Pd 8.39182 18.5727 14.5727
Au 19.1191 19.6504 13.4946
Pd 12.8533 11.3766 22.076
Au 11.4114 20.2461 18.8035
Pd 15.8544 21.2744 19.8722
Au 7.38677 19.8419 21.2514
Pd 9.31833 8.93104 8.6057
Au 20.6679 16.8314 23.5827
Pd 14.7195 4.04434 14.3525
Pd 8.26658 16.5606 10.226
Au 4.67352 18.6096 17.3129
Au 16.043 8.74141 6.70585
Pd 26.2929 16.6052 10.7205
Au 6.52522 10.1764 8.37435
Pd 19.4564 16.9578 14.0285
Au 18.7529 25.6107 21.2395
Pd 14.6273 8.57486 15.6387
Au 19.055 16.5812 27.3881
Pd 13.5785 14.8268 4.35229
Au 26.6078 9.79684 17.0551
Pd 13.882 13.8254 21.2593
Au 12.8754 14.0949 18.492
Pd 5.34188 13.4394 13.1752
Au 16.8681 16.8829 20.8048
Pd 14.464 10.2213 8.24929
Au 15.7249 9.04489 21.681
Pd 14.5038 14.0921 13.8436
Au 17.1926 4.89202 21.8299
Pd 25.7013 13.4895 9.0223
Au 12.8044 18.1766 1.58039
Pd 9.25845 14.7915 21.0729
Pd 10.4274 11.3029 5.95415
Au 19.8585 8.62371 23.4896
Au 15.4878 17.2249 1.75669
Pd 12.6847 13.7073 27.2287
Au 9.22629 16.4453 5.74989
Pd 16.7357 26.4395 19.3052
Au 9.3007 12.6813 3.92727
Pd 9.8799 19.7022 22.1157
Au 12.3791 12.0475 24.6175
Pd 6.34652 15.4097 19.9573
Au 13.3585 20.5885 27.8057
Pd 18.7425 15.767 19.219
Au 27.0901 10.2212 20.055
Pd 19.8556 16.8859 7.13346
Au 14.4282 27.0245 17.9094
Pd 15.5918 11.7583 21.8505
Au 15.1862 23.8711 23.8881
Pd 12.3441 14.8344 15.5188
Au 5.25302 21.4306 11.1589
Pd 18.5772 15.3016 16.1952
Au 14.1236 22.1192 25.6728
Pd 15.8901 27.7699 15.8383
Pd 16.5807 4.31664 19.33
Pd 11.0818 13.2007 8.15843
Pd 22.673 17.8216 17.0551
Pd 18.7103 15.417 24.8525
Pd 5.03331 15.9168 17.6924
Pd 25.7814 7.31224 16.3272
Pd 13.5174 17.6546 10.7672
Pd 9.34045 21.2763 17.3281
Pd 13.9406 9.97244 20.0179
Pd 26.3621 12.5485 17.0605
Pd 17.7193 13.1942 23.1323
Pd 15.464 24.9271 10.0113
Au 6.95601 14.8234 5.22197
Au 15.4914 18.6593 8.15495
Pd 17.9645 7.35361 22.1939
Au 15.7343 23.3307 5.7384
Pd 22.0554 13.7972 15.8001
Au 26.6464 11.2873 10.3374
Pd 9.04048 14.6359 23.7672
Au 7.82229 13.2326 14.4642
Pd 10.2341 13.7125 18.8771
Au 16.6219 16.8505 25.4963
Pd 7.28864 19.9643 7.50069
Au 19.5888 6.14465 15.3461
Pd 10.6007 11.3925 10.11
Au 11.7572 21.6031 21.4732
Pd 18.126 25.1813 10.0904
Au 27.8907 13.4902 14.9068
Pd 10.4854 8.35248 6.25734
Au 5.99055 14.9774 9.87184
Pd 14.1416 25.6486 20.1747
Au 28.0909 11.5163 12.8938
Pd 24.9839 18.7651 22.0362
Pd 14.0249 5.29231 18.6216
Au 25.3246 17.6253 17.9056
Au 11.5599 12.2344 16.9148
Pd 6.4916 12.9518 8.03199
Au 11.4866 21.1915 5.73482
Pd 14.5928 13.8801 11.1544
Au 20.1979 11.4127 23.3333
Pd 13.3918 8.91754 13.2188
Au 9.75856 12.2116 24.361
Pd 8.58814 13.5869 9.55588
Au 14.8069 20.4828 10.3611
Pd 15.6153 9.56553 26.3732
Au 14.1608 7.72563 24.9905
Pd 6.34069 12.4926 10.767
Au 17.7878 18.2006 15.834
Pd 7.09069 17.9889 25.9459
Au 14.6426 4.57382 21.245
Pd 8.11801 10.4906 10.5771
Au 25.8966 20.2556 13.5898
Pd 8.18388 15.8836 14.5528
Au 19.3599 12.599 15.9311
Pd 18.7058 11.0776 3.08006
Pd 16.628 11.5172 17.0729
Au 19.0772 8.61549 4.14803
Au 17.7695 28.2174 13.8534
Pd 11.0908 14.5259 5.27911
Au 21.8473 4.9425 16.4765
Pd 16.2034 25.0111 21.6457
Au 3.03159 17.556 13.2243
Pd 8.99549 13.6614 6.55489
Au 24.6243 9.37519 10.0733
Pd 12.6798 15.1645 9.80401
Au 9.35284 10.6783 19.01
Pd 16.5619 14.1636 17.8076
Au 23.2913 18.3881 6.17827
Pd 21.4626 20.1815 17.4371
Au 25.0269 15.9216 8.42108
Pd 5.22291 20.569 15.4483
Au 14.4291 8.07189 4.01199
Pd 12.3724 15.7364 12.5297
Au 13.5262 4.42448 11.9873
Pd 16.3159 16.1408 27.9624
Au 5.34081 17.007 24.1211
Pd 21.0697 17.5305 19.1189
Pd 23.494 9.32666 17.3209
Au 13.9159 21.6436 4.45348
Au 12.6937 7.14864 11.3787
Pd 9.23108 23.5539 16.0471
Au 12.1866 6.78654 4.65765
Pd 16.4291 6.63341 17.5678
Au 17.3466 8.01368 9.40098
Pd 4.01707 11.3457 12.1397
Au 3.4911 14.6829 19.4941
Pd 16.404 12.4636 12.6177
Au 20.8944 9.08506 6.19029
Pd 12.4751 12.5557 14.2983
Au 4.52451 10.753 19.6525
Pd 17.6527 17.7859 23.199
Au 10.8277 8.06616 13.6996
Pd 18.6384 8.17505 13.8591
Au 7.32442 19.3646 10.4551
Pd 15.7797 14.44 2.28538
Au 6.698 22.561 16.4824
Pd 5.71837 17.8955 21.6618
Au 5.51852 9.65528 10.8088
Pd 20.7182 19.4329 22.9145
Pd 12.2808 10.16 15.2678
Au 17.2272 20.2569 11.7553
Au 20.6255 16.3168 9.78801
Pd 14.4762 10.2855 23.988
Au 5.66976 12.4375 15.7777
Pd 25.0256 11.1349 18.846
Au 21.1378 10.4434 4.00033
Pd 16.4403 20.4637 14.6932
Au 11.1367 11.2312 2.29518
Pd 10.9115 5.21074 12.0647
Au 15.6389 19.2266 22.1642
Pd 15.3366 13.7774 27.9321
Au 27.0258 13.0214 19.8182
Pd 11.3083 16.2517 17.8429
Au 24.7998 16.519 23.4906
Pd 25.0112 16.5082 20.5864
Au 22.0065 21.9131 23.694
Pd 17.5411 22.6509 17.0492
Au 8.10328 9.51022 6.28934
Pd 20.5151 22.8582 17.2533
Au 16.4732 21.7912 22.6607
Pd 20.118 13.5674 9.239
Pd 5.67751 21.6339 21.7438
Pd 4.95968 19.8213 19.8222
Pd 16.1637 9.33895 18.5729
Pd 20.1372 10.5177 20.6349
Pd 17.5406 24.0909 12.465
Pd 13.5095 22.9642 14.516
Pd 14.5075 16.848 6.26629
Pd 8.47575 17.3186 20.9774
Pd 21.5314 20.6048 12.5647
Pd 14.6548 18.1891 26.8932
Pd 20.229 14.3933 14.0118
Pd 10.3272 14.3531 13.6349
Au 21.0223 20.0823 25.4557
Au 6.69777 23.8258 11.2803
Pd 10.9027 23.503 18.3466
Au 17.1074 24.0255 7.929
Pd 10.9099 15.8228 27.5392
Au 7.65945 15.5297 7.80044
Pd 11.8393 9.41409 4.1818
Au 10.6005 16.6467 22.795
Pd 16.7509 6.08613 7.75458
Au 14.3077 2.81206 19.1214
Pd 15.9447 15.4686 23.0119
Au 23.6343 6.60743 17.6996
Pd 14.4366 7.44753 8.62025
Au 10.8918 20.6625 26.7047
Pd 7.31306 10.2576 15.3993
Au 11.6376 19.2416 3.78874
Pd 6.53508 8.41288 12.9205
Au 3.99612 17.2903 19.6966
Pd 20.2768 9.91302 12.7099
Au 15.0318 16.2866 12.4702
Pd 16.8343 14.0291 20.6328
Pd 10.7868 16.9284 14.9555
Au 23.4402 6.59484 14.8324
Au 12.297 18.5118 16.5494
Pd 11.3657 13.6451 22.4554
Au 26.0553 9.6836 12.4258
Pd 15.5493 13.2428 8.66255
Au 9.62405 18.3082 16.9683
Pd 18.6379 15.4483 22.1585
Au 23.556 8.34307 12.3708
Pd 26.1681 11.2611 14.7434
Au 21.5253 4.6772 13.7746
Pd 23.4598 20.5476 14.742
Au 9.17707 17.9456 3.5561
Pd 12.332 26.6165 13.7628
Au 16.5888 13.9555 25.5564
Pd 9.78334 11.8466 21.3903
Au 16.4292 4.43736 12.3416
Pd 20.1284 11.3491 7.52102
Au 18.9082 17.5293 4.51129
Pd 21.0511 6.23199 18.7041
Au 23.5954 18.5692 12.8673
Pd 13.9988 10.6954 17.3378
Pd 11.3568 7.68983 24.5666
Au 16.8402 13.3364 15.1635
Au 3.03941 14.818 13.8162
Pd 14.377 23.059 21.4072
Au 24.0828 15.8536 5.76582
Pd 11.9818 18.5001 12.8707
Au 9.74534 16.9398 12.553
Pd 15.9029 20.838 27.3119
Au 21.5151 12.7258 11.5415
Pd 16.8181 6.41863 14.8947
Au 11.7002 17.3366 5.85876
Pd 13.3755 26.1386 11.1982
Au 6.58381 11.102 13.0013
Pd 14.116 17.118 21.4201
Au 10.882 21.4707 24.1021
Pd 20.0424 20.8088 7.93065
Au 7.3761 5.63778 16.0107
Pd 20.8149 5.38724 11.1197
Au 13.0361 19.6627 25.332
Pd 5.29376 14.0157 23.7181
Au 10.8849 11.8065 26.815
Pd 22.699 10.6544 19.7769
Pd 4.71658 10.0562 14.7191
Au 12.5757 9.71392 25.8997
Au 18.5724 18.5723 18.699
Pd 25.6561 7.09347 13.4431
Au 17.2782 18.6055 27.4883
Pd 24.6043 18.1616 15.2833
Au 11.0336 18.0015 20.3222
Pd 10.7822 22.2841 11.264
Au 9.61703 5.18262 19.8408
Pd 20.8054 19.1301 5.95412
Au 4.95545 13.3076 6.01837
Pd 12.3724 5.22948 9.68225
Au 18.6614 24.6483 18.6107
Pd 22.6601 9.4289 8.14833
Au 13.4515 3.0779 16.5751
Pd 24.7382 9.11096 14.8793
Au 20.1256 15.0547 3.43803
Pd 18.3631 20.3511 23.8848
Au 22.1741 7.45309 10.1086
Pd 22.4455 17.5632 21.642
Au 16.5645 21.3198 4.01962
Pd 19.4195 14.7446 11.4659
Pd 7.95983 10.4744 23.6447
Au 6.4421 8.4914 19.7357
Au 19.469 13.0439 21.1142
Pd 9.80685 5.42578 14.5618
Au 20.5653 23.0521 19.9286
Pd 23.7054 11.5048 15.6768
Au 8.371 20.2588 25.3183
Pd 11.4064 14.516 25.0884
Au 19.5814 7.79645 11.124
Pd 9.81691 6.37138 9.87337
Au 24.2019 23.019 14.2582
Pd 8.72713 12.1937 16.9373
Au 22.4256 13.9013 4.65775
Pd 25.2098 13.8101 15.0632
Au 9.47754 20.5632 9.58994
Pd 15.682 14.363 6.30809
Au 9.31105 24.5116 11.9216
Pd 16.81 15.3051 10.8042
Au 6.96761 15.3423 25.4036
Pd 19.0908 22.8212 9.22443
Au 21.2723 11.7842 14.2529
Pd 16.3414 25.1805 16.9345
Pd 18.506 4.83678 17.3582
Pd 12.0082 24.2062 20.7625
Pd 7.18647 19.7678 16.9821
Pd 11.9757 13.1371 11.7466
Pd 12.6023 21.1502 12.7587
Pd 13.5574 12.899 1.93321
Pd 9.79983 9.55457 16.2698
Pd 14.2764 5.97859 16.0458
Pd 14.6677 6.28247 5.99893
Pd 13.6894 20.2907 15.0182
Pd 16.708 20.2039 17.4446
Pd 13.1765 12.3049 9.53638
Au 19.1819 20.4392 16.2122
Au 10.8248 17.6732 10.1901
Pd 5.50615 11.3608 23.0774
Au 8.89653 18.0367 8.12564
Pd 27.4006 8.88053 14.612
Au 3.79731 16.3755 9.72621
Pd 16.0094 19.7183 24.9493
Au 12.0267 18.3208 27.7711
Pd 5.1261 15.787 7.10505
Au 23.1481 15.0061 22.0834
Pd 6.64539 17.9429 19.0718
Au 25.8287 21.4909 15.8944
Pd 8.84402 11.4525 8.03786
Au 17.8452 10.8657 14.4059
Pd 8.17239 21.8535 11.9417
Au 7.53092 12.9937 22.3826
Pd 5.26789 13.1357 18.4045
Au 23.8741 10.7995 23.7419
Pd 17.9857 19.9209 21.0868
Au 16.9026 7.21774 4.76748
Pd 23.7098 13.6836 7.2015
Pd 8.86688 9.27547 21.4494
Au 10.4382 22.5305 13.9155
Au 9.81651 14.585 16.3144
Pd 16.1667 23.3923 14.7887
Au 18.6454 5.99283 19.8306
Pd 22.0943 9.49664 22.2326
Au 13.5595 16.0645 28.1079
Pd 9.39175 19.3123 5.74321
Au 6.9075 10.9191 20.822
Pd 22.4304 11.5196 6.15363
Au 12.5489 23.4914 23.4278
Pd 18.4604 22.2124 14.3521
Au 7.70506 23.9248 13.9219
Pd 13.5255 19.8619 20.5999
Au 18.279 27.0721 16.7925
Pd 15.2403 5.84613 10.449
Au 5.05067 19.9826 8.9606
Pd 12.3945 18.7199 22.7675
Au 19.7657 21.805 22.15
Pd 26.1062 14.5291 22.0287
Au 6.53554 19.9472 13.0617
Pd 6.94145 17.6449 6.13321
Pd 9.46203 21.8953 20.1302
Au 6.68444 10.8802 18.0404
Au 11.7104 9.53637 18.0988
Pd 14.5485 17.6481 24.0831
Au 14.6035 13.2487 23.8204
Pd 13.522 23.0498 10.7879
Au 21.3991 17.3798 26.1307
Pd 18.6604 15.0213 5.65019
Au 9.939 23.5149 22.3521
Pd 14.4557 4.78694 8.15924
Au 16.2457 11.7958 2.0564
Pd 26.8205 15.1095 13.0938
Au 9.76134 9.67974 25.6303
Pd 18.0861 13.02 7.33836
Au 12.2574 12.2952 4.3515
Pd 11.7709 10.3822 7.92809
Au 7.08655 17.4062 12.4716
Pd 14.8603 6.60897 13.1492
Au 6.15564 19.7127 23.7323
Pd 24.3187 13.4973 20.2378
Au 27.1165 18.8189 15.6294
Pd 18.6268 17.3543 11.5263
Pd 20.1101 17.5141 16.6621
Au 7.39641 6.0635 18.6433
Au 13.9904 7.9335 18.1673
Pd 13.2324 22.32 19.1587
Au 22.8404 19.6896 10.385
Pd 28.605 11.0608 15.6373
Au 11.8032 26.2382 18.975
Pd 23.223 13.5349 13.417
Au 7.51327 23.4182 21.0432
Pd 4.3352 15.6435 21.843
Au 7.92293 6.7433 21.3321
Pd 20.7374 14.6926 26.3424
Au 10.4756 18.8514 24.6773
Pd 19.6887 22.4823 24.8401
Au 11.7128 22.2393 8.76531
Pd 10.2979 8.69556 11.0816
Au 16.9106 22.3652 25.3306
Pd 15.2564 21.9179 12.6981
Au 28.4939 11.5292 18.2045
Pd 4.81343 18.4952 11.2436
Au 14.9603 22.6284 8.46622
Pd 7.10131 17.1622 16.5646
Pd 21.0094 8.97583 18.5964
Au 23.0337 20.4834 21.7672
Au 24.0801 12.0568 10.6207
Pd 8.75341 16.1365 18.5963
Au 8.73667 6.77551 12.3532
Pd 8.90549 19.3689 19.2198
Au 17.9954 5.33169 10.2266
Pd 15.3849 6.66303 22.8508
Au 9.81575 25.8124 17.2951
Pd 6.1145 17.5859 8.81913
Au 22.977 7.87228 19.9843
Pd 12.0251 24.2814 12.7105
Au 23.3146 5.78764 12.1551
Pd 9.27954 10.0205 4.00434
Au 8.18808 16.1605 27.6727
Pd 5.36483 17.9648 14.5807
Au 18.1512 22.063 6.39651
Pd 13.4184 12.5113 6.84443
Au 27.682 15.7055 20.0496
Pd 20.4853 24.4185 10.9167
Au 7.15662 12.6435 25.0745
Pd 10.2956 14.9163 10.8747
Pd 25.7411 12.6365 12.6278
Pd 13.8444 17.3815 3.82849
Pd 6.39337 8.76005 22.4068
Pd 19.5272 17.7466 21.2085
Pd 7.74299 13.1175 19.5491
Pd 8.86195 9.77392 13.1034
Pd 23.9536 15.6623 16.3766
Pd 21.1164 21.9179 14.8197
Pd 16.7764 8.61733 24.2286
Pd 25.4057 8.34658 18.9147
Pd 21.1937 25.5797 20.2205
Pd 13.4785 20.4686 8.00773
Au 14.8233 27.4521 13.4258
Au 16.1656 18.696 4.90237
Pd 9.67381 19.6889 12.2394
Au 6.98655 21.929 9.23531
Pd 19.7466 19.8726 10.5279
Au 13.0843 8.3463 6.57294
Pd 14.928 12.4191 19.197
Au 22.6191 24.2111 18.4946
Pd 18.3699 10.4908 5.81872
Au 9.3238 21.7932 7.21583
Pd 18.9111 24.5181 15.8638
Au 13.2889 24.8233 8.52344
Pd 20.7565 25.8075 17.389
Au 18.1639 19.3226 6.6596
Pd 15.725 18.6781 19.413
Au 19.1195 26.4459 12.2771
Pd 12.0022 11.8651 19.6452
Au 11.967 21.7924 16.5209
Pd 15.7345 20.8263 6.54506
Au 19.9882 26.7014 14.7843
Pd 20.927 15.3712 20.7505
Pd 13.48 7.11054 20.7149
Au 11.7111 5.0076 16.4479
Au 11.187 13.9807 2.45271
Pd 21.1652 7.24712 13.2267
Au 14.2783 25.5741 15.2966
Pd 27.889 17.1572 17.7779
Au 18.3877 13.5594 1.98652
Pd 14.9252 15.5121 19.5088
Au 13.3539 15.5663 1.70102
Pd 24.3307 16.0365 13.5718
Au 13.9832 10.392 5.39187
Pd 21.5055 7.60835 16.4075
Au 16.0266 15.965 15.2502
Pd 24.6633 11.2259 8.08407
Au 21.6077 9.96385 24.9875
Pd 16.3877 9.99385 4.10279
Au 14.4864 11.9216 26.3037
Pd 21.2601 18.578 8.64597
Au 22.1979 23.2132 12.5728
Pd 25.2611 20.6119 19.9694
Au 12.8759 5.93035 23.2085
Pd 9.48303 16.5431 25.4086
Pd 12.1939 5.88807 7.12576
Au 24.7154 14.6763 11.289
Au 3.83318 20.1952 13.1257
Pd 16.553 26.6483 11.7221
Au 18.599 7.85066 6.79487
Pd 22.8631 21.5995 19.2273
Au 3.83926 13.9449 8.38482
Pd 18.9522 7.58726 17.5776
Au 28.2692 14.3556 17.5249
Pd 14.3134 15.2863 25.6975
Au 8.19189 21.2519 14.7389
Pd 9.88604 25.562 14.3053
Au 24.4345 18.5391 8.52332
Pd 14.906 12.5876 4.23596
Au 19.3648 22.16 11.8368
Pd 12.8086 9.78264 10.4517
Au 13.1331 23.1041 6.51492
Pd 17.3409 20.7128 8.87178
Au 27.0808 17.0343 22.2973
Pd 17.7211 9.94341 11.5582
Au 25.4575 19.1287 11.0328
Pd 8.09752 17.9432 23.5037
Pd 17.6896 12.8523 10.2199
Au 22.7077 20.5458 7.75629
Au 7.52912 7.9239 10.3097
Pd 18.2032 15.2949 8.65449
Au 21.6269 13.1185 19.398
Pd 17.1975 8.92095 16.1169
Au 11.7504 7.82179 8.87327
Pd 26.3818 17.7068 13.2129
Au 10.689 7.03979 21.8447
Pd 7.53691 8.39436 17.3102
Au 9.57861 25.0807 20.128
Pd 21.1443 17.9855 12.0381
Au 9.1534 13.9231 26.5403
Pd 23.4688 17.0249 10.5293
Au 17.5038 3.8832 14.7421
Pd 24.0578 21.3598 12.0586
Au 21.0729 14.3026 6.94036
Pd 16.712 22.6548 10.5151
Au 3.68335 13.8098 11.0466
Pd 9.3681 7.95787 19.2938
Au 4.92915 15.9415 12.2673
Pd 16.1581 18.0115 10.6527
Pd 22.7185 15.4691 24.75
Au 22.7712 23.2396 21.3537
Au 17.3813 18.9303 2.59888
Pd 15.6094 11.1595 10.3828
Au 9.65411 6.76661 16.9583
Pd 23.1029 15.7259 19.0146
Au 18.594 20.6935 26.5785
Pd 12.8606 17.6011 8.26402
Au 25.6009 11.8459 21.8773
Pd 22.2139 11.9781 8.82094
Au 18.027 23.9585 23.355
Pd 15.1092 8.59318 10.9759
Au 24.6688 9.51046 21.2645
Pd 22.722 14.4597 9.59904
Au 12.1717 26.9978 16.4229
Pd 11.084 19.4811 7.75291
Au 5.61028 22.4534 13.6002
Pd 22.518 16.4268 7.80792
Au 20.0097 12.6279 5.09926
Pd 12.9435 15.012 7.1746
Au 8.13425 21.6613 23.0551
Pd 13.0793 15.5373 23.2397
