665
Atoms. Timestep: 20271
Pd 8.96332 8.31811 8.60467
Pd 6.08102 8.59644 12.5294
Pd 3.48761 8.99675 16.6391
Pd 3.41152 8.24616 19.2214
Pd 6.50932 8.67479 22.7013
Au 9.87764 9.35461 6.17058
Au 6.89679 9.56093 10.0174
Pd 7.83382 10.6011 7.58334
Au 4.1744 9.94592 14.0752
Pd 5.00049 10.9044 11.5753
Au 3.21412 10.8013 18.6122
Pd 3.69369 11.7637 16.1257
Au 4.31403 9.64088 21.3652
Pd 4.38857 12.2018 20.5248
Au 5.3411 11.0535 23.5342
Pd 5.53417 13.5563 22.4896
Au 8.75821 11.6812 5.16172
Au 5.80996 11.8582 9.04448
Pd 6.7407 12.8985 6.60373
Au 4.29869 12.6817 13.6213
Pd 5.03918 13.6133 11.1547
Au 3.37202 13.5308 18.2682
Pd 3.89862 14.526 15.7924
Au 5.67929 16.3525 22.2672
Pd 4.53713 14.9805 20.2431
Au 6.39599 12.4376 25.5859
Pd 6.63116 14.874 24.4794
Au 9.30849 15.8951 3.1446
Au 5.69298 14.5246 8.6659
Pd 6.29005 15.4992 6.2007
Au 4.46081 15.4385 13.2799
Pd 5.12762 16.3631 10.783
Au 3.5835 16.2855 17.9658
Pd 4.07404 17.2901 15.4788
Au 5.96675 19.1148 22.0322
Pd 4.73795 17.7797 19.9636
Au 7.64441 16.1216 26.5528
Pd 6.93291 17.6098 24.2895
Au 7.65438 14.0589 4.24153
Au 5.67565 17.2741 8.25016
Pd 6.30469 18.2263 5.742
Au 4.60016 18.1764 12.9276
Pd 5.21925 19.1264 10.3796
Au 3.82355 19.0716 17.6569
Pd 4.2553 20.0353 15.1326
Au 4.99035 20.5811 19.66
Pd 4.14436 21.7972 17.2786
Au 8.56912 18.6035 26.1665
Pd 7.48069 20.2187 24.0279
Au 7.78216 20.4745 5.73952
Au 5.5441 21.8871 9.97078
Pd 6.77702 16.5039 3.74542
Au 5.1419 23.5045 12.0917
Pd 7.27128 22.0033 12.0346
Au 4.46742 22.7146 14.6548
Pd 8.54464 21.6727 16.6165
Au 6.42235 21.7906 21.6965
Pd 5.56665 23.2088 19.2851
Au 9.75873 21.0279 25.3294
Pd 8.5431 22.5641 23.3274
Pd 11.0377 7.07642 7.2364
Pd 8.08524 7.30345 11.0545
Pd 10.1123 6.03723 9.64122
Pd 5.29885 7.64611 14.9992
Pd 7.29339 6.32523 13.5047
Pd 5.41188 7.34501 17.6663
Pd 7.43425 6.26684 16.1957
Pd 5.57638 7.3361 20.478
Pd 7.58599 6.26879 18.9668
Pd 8.74685 7.7017 23.9111
Pd 7.79229 6.37254 21.732
Pd 11.5318 11.1945 4.92
Au 12.6341 8.868 5.87041
Au 11.4755 9.47947 8.3636
Pd 9.40263 10.7651 9.79789
Au 10.5608 8.47056 10.8191
Pd 13.1724 11.2781 7.14044
Au 8.52956 9.74989 12.2463
Pd 6.59261 11.0815 13.7413
Au 7.71026 8.7006 14.7403
Pd 11.0494 10.96 12.0542
Au 5.80278 10.0434 16.2664
Pd 5.65395 12.0813 18.1156
Au 7.80064 8.62558 17.5214
Pd 8.2117 11.1975 16.0365
Au 5.6514 9.6314 19.0564
Pd 6.72965 11.0177 21.274
Au 7.91577 8.64935 20.3507
Pd 8.12007 10.9817 18.9018
Au 8.9695 10.0055 22.5955
Pd 9.94425 11.3148 24.829
Au 7.5081 10.0727 24.8516
Pd 11.4284 11.248 22.5048
Pd 10.4301 13.5255 3.95496
Au 13.2083 13.0966 3.67374
Au 10.3314 11.7856 7.3477
Pd 8.25785 13.0853 8.77701
Au 11.9637 11.9594 9.59987
Pd 12.1031 13.5595 6.148
Au 7.39093 12.0784 11.2231
Pd 6.78425 13.9121 13.2322
Au 9.06277 12.2756 13.4751
Pd 9.90983 13.2887 10.9646
Au 6.14354 12.9822 15.6664
Pd 5.80627 14.7754 17.8192
Au 8.21025 13.3621 17.7214
Pd 8.68501 14.2924 15.2903
Au 6.85222 13.4728 20.1173
Pd 8.03652 14.826 22.1636
Au 9.23271 12.3767 21.1368
Pd 9.41861 14.7732 19.7928
Au 7.82518 12.4264 23.4575
Pd 8.80031 13.7267 25.7422
Au 12.5725 12.2021 24.8342
Pd 10.3127 13.6523 23.453
Pd 10.9696 17.9384 3.43671
Au 12.0916 15.4427 2.81879
Au 9.19411 14.1381 6.34746
Pd 8.08141 15.7933 8.24504
Au 10.8224 14.3177 8.50054
Pd 11.0607 15.8801 5.27358
Au 7.46368 14.8438 10.7549
Pd 6.92511 16.6618 12.8381
Au 9.31413 15.1698 12.8442
Pd 9.94693 16.0953 10.3413
Au 6.3248 15.7572 15.329
Pd 5.99663 17.5225 17.5125
Au 8.32827 16.0762 17.4159
Pd 8.84028 17.0411 14.8969
Au 6.98625 16.218 19.863
Pd 8.2145 17.5395 21.8927
Au 10.57 16.0716 22.0139
Pd 9.53188 17.4805 19.4375
Au 9.14 16.0417 24.3725
Pd 10.247 16.516 26.7944
Au 11.478 14.3992 25.8571
Pd 11.727 16.7961 24.5003
Pd 8.3861 18.6445 3.82285
Au 12.5396 20.0319 3.74708
Au 8.58309 16.7492 5.65823
Pd 8.10523 18.5474 7.71254
Au 10.4526 17.0886 7.73302
Pd 10.1956 19.0351 5.8459
Au 7.52466 17.5809 10.287
Pd 7.04265 19.3569 12.4195
Au 9.42136 17.9202 12.36
Pd 9.9939 18.878 9.77607
Au 6.47444 18.5088 14.9741
Pd 6.23802 20.3062 17.1912
Au 8.46858 18.8306 17.0424
Pd 8.92172 19.7745 14.4605
Au 7.20145 18.9805 19.5676
Pd 8.58891 20.2185 21.5865
Au 10.9636 18.7819 21.3238
Pd 9.8008 20.1868 19.0392
Au 9.73311 18.7003 23.804
Pd 11.268 18.8896 26.1834
Au 15.4091 21.1223 25.1085
Pd 12.4369 19.2077 23.6969
Pd 7.27292 22.1772 7.7812
Au 9.95914 20.8655 4.02836
Au 5.78692 19.9784 7.81408
Pd 4.80681 20.8922 12.5439
Au 9.64165 20.8436 7.81729
Pd 9.33225 22.6555 5.96304
Au 7.63388 20.285 9.8065
Pd 6.79458 23.9662 14.0627
Au 9.52426 20.6412 11.8778
Pd 8.91558 22.651 9.77845
Au 6.62248 21.2578 14.6078
Pd 8.99725 22.4681 14.052
Au 10.8264 20.2519 16.4294
Pd 11.3932 21.1478 13.8663
Au 7.60909 21.708 19.2225
Pd 7.56975 24.0976 21.1209
Au 10.8382 21.1948 22.8736
Pd 6.3492 23.1372 16.6793
Au 11.228 23.3465 24.4426
Pd 9.88217 24.7395 22.6224
Au 12.5387 21.2403 25.5349
Pd 9.6174 22.5981 20.8643
Pd 12.1779 4.81557 8.2952
Pd 9.32202 5.0445 12.0766
Pd 11.3521 3.81227 10.7007
Pd 9.47129 5.08059 14.7824
Pd 11.5223 3.87106 13.3997
Pd 9.64077 5.14746 17.5145
Pd 11.7178 3.98383 16.1123
Pd 9.80306 5.22368 20.2613
Pd 11.8788 4.08899 18.8411
Pd 9.9998 5.42091 22.9335
Pd 12.0263 4.24925 21.5391
Pd 14.3012 10.7989 4.70694
Au 13.7597 6.5488 6.88489
Au 12.6286 7.185 9.40393
Pd 13.1034 9.65385 10.6376
Au 11.7439 6.16555 11.8669
Pd 14.2692 8.98717 8.12921
Au 9.71217 7.42358 13.2861
Pd 10.1677 9.91998 14.5488
Au 11.9222 6.28933 14.6343
Pd 12.1866 8.66178 13.1197
Au 9.86936 7.48837 16.0603
Pd 10.2705 9.94607 17.3594
Au 12.0854 6.39333 17.3979
Pd 12.3327 8.79158 15.9042
Au 10.0044 7.53925 18.844
Pd 10.3717 9.98605 20.1831
Au 12.2472 6.4817 20.1902
Pd 12.4589 8.85405 18.6997
Au 10.1795 7.65743 21.6333
Pd 13.6943 9.96287 23.7938
Au 11.1576 8.92093 23.9436
Pd 12.5846 8.91414 21.5158
Pd 14.9372 15.0593 2.65031
Au 16.0101 12.7419 3.51273
Au 14.8809 13.1874 5.95669
Pd 13.8049 13.6535 8.45355
Au 14.8567 11.3908 9.44082
Pd 16.5942 15.1681 4.86856
Au 13.5765 12.1877 11.8623
Pd 11.5262 13.5087 13.2424
Au 12.5977 11.1943 14.3732
Pd 15.518 13.7613 10.7939
Au 10.6072 12.4444 15.8371
Pd 10.7547 14.7247 17.4032
Au 12.7061 11.275 17.2007
Pd 13.0167 13.7446 15.6904
Au 10.5897 12.3467 18.7234
Pd 11.6811 13.6631 21.0416
Au 12.7885 11.287 20.0504
Pd 13.0145 13.6978 18.5632
Au 13.927 12.3732 22.4066
Pd 14.2989 14.2348 25.7753
Au 15.4004 11.8799 24.7743
Pd 15.6268 14.3009 23.4038
Pd 13.7751 17.5658 3.11052
Au 16.5923 17.1948 2.87862
Au 13.7968 15.5073 4.98083
Pd 12.8146 15.9214 7.50926
Au 15.5312 15.6188 7.3111
Pd 15.4568 17.7127 5.27473
Au 12.4445 14.5195 10.7093
Pd 11.7966 16.4632 12.4366
Au 13.9977 14.7355 13.0319
Pd 14.5501 16.0012 9.82255
Au 11.2154 15.6144 14.9286
Pd 10.8097 17.451 16.9583
Au 13.2109 16.1579 17.1502
Pd 13.6669 16.9504 14.5704
Au 11.9159 16.1165 19.6046
Pd 13.123 17.0829 22.0705
Au 14.1477 14.8412 20.9257
Pd 14.4039 17.3135 19.5359
Au 12.861 14.6387 23.4422
Pd 13.1011 16.4878 26.7658
Au 16.0039 16.2647 26.7929
Pd 14.5483 16.6404 24.4788
Pd 13.9754 22.1905 4.22802
Au 15.3061 19.7849 3.46565
Au 12.6769 17.9969 5.59599
Pd 12.0322 19.5378 7.86476
Au 14.3419 18.1187 7.83151
Pd 14.1845 20.1744 5.99297
Au 12.3063 17.4377 9.8049
Pd 11.8722 19.2546 11.8582
Au 14.1654 17.7439 11.9322
Pd 13.8259 19.8304 10.024
Au 11.3206 18.3939 14.405
Pd 12.6954 21.5198 17.7777
Au 13.3 19.0194 16.3556
Pd 15.5892 22.0925 13.5073
Au 12.1726 18.8386 18.8351
Pd 13.636 19.5448 21.0563
Au 15.0468 19.0353 23.2624
Pd 11.9087 21.3328 20.3092
Au 13.9601 18.8835 25.982
Pd 16.9451 23.2019 23.897
Au 15.8047 18.7369 27.8439
Pd 16.289 21.2641 22.2752
Pd 13.3312 23.912 6.4785
Au 15.9667 25.1282 6.81841
Au 11.8047 21.577 5.92665
Pd 11.029 23.2474 8.00207
Au 13.5027 21.9268 8.22109
Pd 14.6082 24.3425 8.95711
Au 11.3951 21.3084 9.95503
Pd 9.22025 25.0947 13.4436
Au 10.0688 25.0578 9.85442
Pd 12.4633 23.7856 10.3617
Au 13.8763 19.7398 13.8154
Pd 8.69694 24.3985 15.9694
Au 10.2995 22.8118 18.3101
Pd 10.9651 23.0247 15.7516
Au 12.6533 23.8733 19.1549
Pd 8.09848 24.2646 18.5482
Au 12.0888 23.5513 21.8131
Pd 10.682 25.3706 17.4883
Au 13.6169 21.5942 22.9524
Pd 12.8859 25.3968 23.5375
Au 14.0424 23.4718 24.9421
Pd 13.0117 25.9128 20.952
Pd 14.8977 4.34591 8.07307
Pd 13.5963 2.75337 12.0006
Pd 15.8254 3.18544 10.4522
Pd 13.8072 2.88264 14.6878
Pd 16.0877 3.29466 13.1347
Pd 13.984 3.01621 17.4028
Pd 16.2778 3.43402 15.8228
Pd 14.1454 3.14984 20.1041
Pd 16.4358 3.53991 18.5225
Pd 12.36 6.61369 22.9294
Pd 16.6166 3.67355 21.1977
Pd 15.3929 8.45606 5.71714
Au 15.4059 6.70515 9.16351
Au 13.7722 4.85879 10.4299
Pd 14.2251 7.38565 11.6893
Au 16.2633 5.57114 11.5763
Pd 15.9427 9.08394 10.4281
Au 14.0009 5.09167 13.1984
Pd 14.4048 7.59385 14.4654
Au 16.4826 5.73445 14.3494
Pd 16.6852 8.12358 12.9029
Au 14.1884 5.23867 15.9427
Pd 14.5558 7.71309 17.2193
Au 16.653 5.85369 17.1061
Pd 16.8489 8.26449 15.6654
Au 14.3469 5.35261 18.7134
Pd 14.6849 7.73639 20.0154
Au 16.7901 5.93484 19.8906
Pd 16.9867 8.32262 18.4423
Au 14.4855 5.34661 21.5516
Pd 14.8217 7.69591 22.7699
Au 16.9544 5.95163 22.6615
Pd 17.1141 8.32224 21.2683
Pd 17.7865 14.7328 2.57921
Au 17.0198 10.3697 4.4593
Au 15.9579 10.8619 6.94563
Pd 16.5932 13.2939 8.32306
Au 16.5506 11.43 11.6884
Pd 17.6445 12.7888 5.8165
Au 14.6504 9.90751 12.9479
Pd 15.0401 12.502 14.2439
Au 17.1039 10.7089 14.2458
Pd 17.1672 13.6732 13.0457
Au 14.79 10.1022 15.7389
Pd 15.1404 12.6058 17.0386
Au 17.2116 10.7583 17.0265
Pd 17.4674 13.2254 15.6709
Au 14.9021 10.1449 18.5276
Pd 15.2157 12.5264 19.8752
Au 17.3226 10.7361 19.8491
Pd 17.5154 13.1661 18.45
Au 15.0274 10.0821 21.3701
Pd 17.0849 13.7966 25.7502
Au 16.5237 9.51429 23.7286
Pd 16.7047 11.9485 22.3396
Pd 18.0643 19.3819 3.3271
Au 19.4816 16.822 2.83844
Au 18.3248 17.3207 5.12644
Pd 17.111 17.8747 7.45556
Au 18.266 15.232 7.21871
Pd 18.559 21.4804 7.40383
Au 17.3471 15.7564 9.70029
Pd 16.1984 16.0329 12.1912
Au 17.7913 15.9086 14.4426
Pd 17.8682 18.0623 11.751
Au 15.4156 15.0666 15.4968
Pd 15.6105 17.5323 16.9967
Au 17.7265 15.639 17.1178
Pd 18.0348 18.2297 15.9508
Au 15.4148 14.997 18.4112
Pd 15.8621 16.7206 22.0167
Au 16.8967 14.3725 20.9268
Pd 17.1635 16.7884 19.5864
Au 17.3559 16.1699 24.4292
Pd 18.3804 18.1779 27.3255
Au 18.87 15.6291 26.7119
Pd 20.1757 15.5618 24.3928
Pd 16.8315 21.9455 3.9615
Au 19.3238 21.3212 4.83038
Au 17.0121 19.9635 5.69445
Pd 15.8642 20.441 8.12348
Au 17.8358 20.3433 9.88987
Pd 16.8421 23.066 8.39012
Au 16.0599 18.2231 9.89044
Pd 15.933 19.9502 11.9914
Au 15.8823 20.2171 15.967
Pd 17.7382 22.1532 11.8556
Au 16.1095 18.0883 14.0761
Pd 13.6341 21.9522 15.3425
Au 16.207 19.1666 20.5784
Pd 14.8967 24.4201 14.777
Au 14.7915 19.9227 18.4454
Pd 14.6127 22.0668 20.2015
Au 17.7429 18.6797 22.6794
Pd 12.9741 24.4571 16.5215
Au 16.6689 18.6171 25.358
Pd 17.3635 20.7773 26.9443
Au 20.9637 17.5174 26.7026
Pd 16.319 23.3075 26.4161
Pd 18.3571 25.2585 8.27136
Au 18.0404 23.6257 5.88463
Au 15.5865 22.4811 6.22437
Pd 16.9424 24.5289 13.1434
Au 15.3887 22.0875 10.3952
Pd 13.6558 26.3236 13.2719
Au 13.2623 21.7351 12.0194
Pd 7.75084 24.4437 11.3871
Au 12.2918 25.5755 8.36099
Pd 14.6097 24.2182 11.93
Au 10.4018 23.2312 11.9465
Pd 13.4672 26.9958 15.7954
Au 11.4081 25.8042 12.005
Pd 15.9286 26.954 14.5858
Au 11.2641 25.8111 14.8899
Pd 10.3805 25.0529 20.0774
Au 15.1747 24.8064 19.6342
Pd 13.1064 26.4281 18.378
Au 14.8686 23.95 22.2373
Pd 15.5564 25.5453 24.2744
Au 18.9257 22.8121 25.8769
Pd 15.528 26.4846 21.7157
Pd 17.4191 4.80671 9.0401
Pd 18.3029 3.89418 11.5342
Pd 19.9684 5.28056 9.97887
Pd 18.5798 4.01863 14.2114
Pd 20.7937 4.74665 12.5988
Pd 18.747 4.11582 16.9047
Pd 21.0405 4.79206 15.2893
Pd 18.8777 4.17429 19.6123
Pd 21.1561 4.80043 18.0424
Pd 19.0272 4.32123 22.2772
Pd 21.2697 4.86321 20.7685
Pd 17.0649 8.54169 7.96288
Au 16.5106 6.13939 6.76196
Au 17.9914 7.16985 10.1937
Pd 18.5816 9.48369 11.4918
Au 20.6284 7.55001 11.1745
Pd 19.682 8.96876 8.9753
Au 18.7157 6.34789 12.7176
Pd 19.1091 8.92138 14.1136
Au 21.1575 7.1789 13.8845
Pd 21.194 9.83264 12.536
Au 18.9246 6.46339 15.4877
Pd 19.2706 8.97688 16.8691
Au 21.3381 7.192 16.6733
Pd 21.5366 9.66836 15.2975
Au 19.0812 6.52768 18.2588
Pd 19.4038 8.99715 19.6635
Au 21.4938 7.21044 19.4687
Pd 21.6853 9.67905 18.0996
Au 19.2133 6.59925 21.0335
Pd 18.7591 7.80729 23.4842
Au 20.8502 6.10334 23.1506
Pd 20.9859 8.50934 21.9172
Pd 18.7328 12.3421 3.38687
Au 18.7227 10.3924 6.72353
Au 17.713 10.9444 9.23723
Pd 18.371 13.349 10.549
Au 20.3109 11.3764 10.3302
Pd 19.4159 12.8757 8.0721
Au 19.2069 11.8138 12.777
Pd 19.8118 14.0396 14.2055
Au 21.7811 12.1636 13.8666
Pd 21.0641 13.784 11.6397
Au 19.5215 11.4577 15.5007
Pd 19.8633 13.9042 16.9978
Au 21.9303 12.1564 16.7371
Pd 22.4657 14.452 15.2064
Au 19.6291 11.4512 18.3075
Pd 19.0328 12.6369 20.8506
Au 21.151 10.9551 20.617
Pd 21.4108 13.3825 19.3317
Au 18.8482 10.209 22.2127
Pd 18.2083 11.3671 24.6374
Au 20.4769 9.6838 24.4262
Pd 20.5708 12.1097 23.1715
Pd 19.5195 19.1902 6.77251
Au 20.5182 14.2879 2.52816
Au 19.4496 14.7233 4.85175
Pd 19.0457 17.9124 9.21571
Au 20.2425 15.332 9.39509
Pd 20.4146 16.78 7.00875
Au 19.021 15.5633 11.9967
Pd 19.5043 17.9035 13.7546
Au 21.6778 16.0529 13.1808
Pd 20.6694 17.5612 11.2498
Au 20.3752 16.2564 15.6733
Pd 17.6293 19.1296 18.353
Au 19.7058 17.2507 18.064
Pd 20.6178 19.007 16.0695
Au 19.2566 15.0189 19.5198
Pd 18.6542 16.1601 22.0338
Au 20.7879 14.508 21.9031
Pd 21.5509 16.3684 20.1093
Au 18.3915 13.7725 23.3675
Pd 21.5884 14.9369 26.5701
Au 19.8981 13.1459 25.661
Pd 21.1572 17.3743 22.7075
Pd 20.2854 23.6137 7.42965
Au 21.3227 21.2915 6.66581
Au 20.4286 20.3965 9.09148
Pd 18.8554 22.9559 14.0559
Au 19.7011 20.0082 11.9798
Pd 20.6511 22.3697 11.9126
Au 17.9115 20.3302 14.0326
Pd 16.8431 22.7137 15.8077
Au 21.8978 18.9952 13.5779
Pd 20.7919 21.3358 14.6975
Au 18.7637 20.9865 16.6145
Pd 16.9128 21.6541 18.618
Au 20.3177 19.9823 18.6631
Pd 22.9913 20.1553 16.0159
Au 19.4537 18.2139 20.566
Pd 14.9083 23.0177 17.569
Au 20.2724 19.9728 22.7306
Pd 18.4663 20.7267 20.6641
Au 19.3738 18.125 24.7327
Pd 19.9468 20.2157 26.301
Au 21.976 19.2473 24.7584
Pd 18.1562 20.7723 24.3418
Pd 16.9836 24.4584 10.5624
Au 22.6064 24.0103 11.6747
Au 19.1783 22.9281 9.73692
Pd 19.602 23.5818 16.4475
Au 20.7014 25.0607 9.79747
Pd 19.4956 24.7154 12.1182
Au 16.0967 26.5458 9.15194
Pd 13.6759 26.3208 10.5268
Au 17.686 25.2366 15.5359
Pd 17.7855 26.9405 17.5051
Au 16.0177 26.7278 11.8724
Pd 12.4864 23.8165 13.6275
Au 25.7927 21.0791 18.8205
Pd 22.0545 24.5757 16.8014
Au 15.4133 25.7707 17.0472
Pd 15.5504 27.3612 19.1367
Au 17.2624 23.4058 20.7917
Pd 17.415 24.2652 18.0779
Au 17.9122 25.2108 25.3858
Pd 17.7959 25.3578 22.6563
Au 21.0546 21.9346 24.4543
Pd 19.889 25.4382 18.3477
Pd 19.0323 6.60213 7.73685
Pd 22.5545 5.7126 10.8594
Pd 20.6313 8.41468 6.48703
Pd 23.2685 5.58546 13.6807
Pd 25.5676 8.17786 13.3492
Pd 23.3912 5.46517 16.4875
Pd 26.2001 11.622 16.9639
Pd 23.5268 5.50538 19.2166
Pd 25.5467 6.17715 15.0984
Pd 23.0722 6.71307 21.6669
Pd 25.2418 7.40967 20.1178
Pd 18.0878 8.03899 5.53952
Au 19.6667 9.86324 4.21049
Au 21.6431 7.05335 8.6365
Pd 22.2619 9.47549 10.0062
Au 24.0866 7.60874 9.63617
Pd 23.1819 9.05344 7.47445
Au 23.2256 7.87921 12.1863
Pd 23.6994 10.167 13.5771
Au 24.0598 11.2801 8.85826
Pd 23.1059 12.0456 6.32377
Au 23.58 7.89126 15.1204
Pd 26.1597 10.4377 14.5623
Au 25.6984 6.18657 17.7343
Pd 25.5137 12.0708 12.4555
Au 23.7452 7.90579 17.901
Pd 23.9398 10.3125 16.5194
Au 24.8825 9.77484 11.0756
Pd 24.2131 13.4998 17.338
Au 23.2667 9.16853 20.3925
Pd 22.5779 8.0151 24.0217
Au 24.797 8.63748 22.5559
Pd 25.9432 8.52379 16.4037
Pd 20.3966 12.2045 5.56401
Au 21.3557 11.756 3.1426
Au 21.2835 10.8336 7.77817
Pd 22.0771 13.117 9.19416
Au 22.3275 13.8511 4.43388
Pd 21.5612 16.4125 4.67713
Au 23.0107 11.7634 11.3819
Pd 23.6114 14.1395 12.6501
Au 22.1449 10.0246 5.07183
Pd 24.8373 13.6873 10.3023
Au 24.3449 12.4465 14.8497
Pd 22.1263 15.392 17.6622
Au 27.0057 12.9924 14.7577
Pd 25.1435 14.9614 15.3026
Au 23.4974 11.6031 19.1007
Pd 22.9585 12.8882 21.6359
Au 25.5589 9.83213 18.8902
Pd 25.9197 12.7855 19.3929
Au 22.7184 10.4445 22.8353
Pd 22.2158 11.5723 25.2799
Au 24.2877 9.90648 24.8329
Pd 25.0215 11.1073 21.3945
Pd 22.2375 18.7768 6.40239
Au 20.5276 18.8871 4.33707
Au 21.4667 14.3539 6.89838
Pd 21.8346 18.0425 8.94588
Au 24.1339 13.9337 7.69833
Pd 23.1794 16.4249 7.24995
Au 22.9864 15.6244 9.95167
Pd 26.275 14.6603 12.7928
Au 27.6761 15.6287 14.9213
Pd 25.517 16.4435 11.0328
Au 23.0284 17.2901 15.6219
Pd 24.7738 16.2178 17.6402
Au 26.8894 14.2449 17.2588
Pd 25.8609 17.666 15.5523
Au 23.8489 14.6143 19.7304
Pd 23.2533 15.6853 22.1336
Au 25.5238 13.9472 21.8041
Pd 26.3979 15.5333 19.6627
Au 22.3909 13.9795 24.1821
Pd 22.7259 16.6288 24.8015
Au 24.5285 12.3624 23.8356
Pd 24.8538 15.1217 24.0972
Pd 21.947 22.6373 9.41089
Au 23.2153 20.4466 8.40446
Au 22.3312 20.1537 10.9218
Pd 22.8861 21.5382 13.0983
Au 25.4814 15.8801 8.55805
Pd 24.4855 18.2306 9.15963
Au 23.3157 17.8182 11.5141
Pd 24.5044 19.3164 13.9724
Au 28.5248 18.0477 15.2617
Pd 26.8444 17.607 13.0616
Au 25.3885 19.5622 11.5044
Pd 24.7895 18.8984 17.6308
Au 27.5055 16.8466 17.4928
Pd 24.4116 16.5799 13.4694
Au 22.3047 18.0873 18.0929
Pd 21.1933 21.5784 20.6769
Au 25.8101 16.6828 21.9987
Pd 24.1436 17.3355 20.0305
Au 22.1529 19.0244 20.8178
Pd 22.9152 20.8827 22.7074
Au 23.8355 18.2447 22.9221
Pd 26.5668 18.3167 19.53
Pd 18.4427 26.6169 10.6194
Au 20.1336 26.071 15.5746
Au 18.3957 26.7747 13.4087
Pd 23.1021 20.5746 18.8374
Au 24.2595 21.9648 10.8082
Pd 25.4068 21.158 16.09
Au 21.3439 24.0535 14.1344
Pd 24.006 22.8581 17.8659
Au 25.4258 21.8007 13.3566
Pd 23.3785 22.7606 15.3068
Au 27.0566 19.9738 14.3238
Pd 27.2888 19.5298 17.0937
Au 24.8238 19.8208 20.9454
Pd 21.4921 21.9931 17.2846
Au 19.4331 22.7541 19.037
Pd 17.7 26.0373 20.0548
Au 21.9447 23.4718 22.3103
Pd 23.8633 22.3608 20.5962
Au 19.8845 24.6696 21.0029
Pd 19.2065 22.5139 22.4948
Au 20.0235 24.4956 23.9716
Pd 21.9307 23.813 19.3854
