665
Atoms. Timestep: 20689
Pd 11.0048 7.14932 6.1507
Pd 3.83557 11.946 18.3099
Pd 6.21611 11.5019 19.3762
Pd 6.97575 15.5994 19.8084
Pd 8.29685 12.1737 23.5902
Au 9.72672 9.64085 5.7886
Au 6.40831 9.59856 11.9521
Pd 7.50285 10.5074 7.56259
Au 7.6606 6.1904 9.31335
Pd 6.18606 12.2667 12.1203
Au 3.31196 16.5984 19.2258
Pd 2.31604 14.6683 14.9703
Au 6.45171 13.7816 24.7595
Pd 6.82327 13.302 21.4964
Au 4.66493 14.1595 22.6538
Pd 4.24786 11.9006 21.0316
Au 8.40938 12.1637 5.62645
Au 6.5396 8.70838 9.35925
Pd 6.4033 13.0258 7.61213
Au 4.42812 13.5062 10.4278
Pd 9.00727 12.738 8.27923
Au 4.66983 14.2295 19.8659
Pd 3.60187 16.6326 13.5916
Au 8.23276 17.8021 24.1066
Pd 3.61702 18.7506 20.6728
Au 8.74522 12.9861 26.2256
Pd 12.8929 23.8711 22.7422
Au 10.7552 13.0847 4.01513
Au 5.55395 11.2805 9.51531
Pd 6.24876 17.0691 6.96642
Au 5.03294 15.9633 11.4334
Pd 7.09254 13.7575 10.1531
Au 2.64314 18.9436 18.1471
Pd 3.44321 19.066 14.7082
Au 9.32808 21.9408 20.8526
Pd 5.90499 18.1627 19.3791
Au 8.30637 15.6173 25.654
Pd 10.3943 19.375 24.0528
Au 7.18268 14.6349 5.58825
Au 5.37164 15.3362 8.73489
Pd 6.32773 19.6912 7.87235
Au 4.45253 21.4113 12.8474
Pd 4.81993 18.766 12.3921
Au 4.6176 20.5848 19.0722
Pd 3.04271 16.9245 16.351
Au 10.2573 17.0669 22.4251
Pd 8.37603 20.1068 22.5247
Au 15.8762 12.8514 26.6264
Pd 10.7545 16.8922 25.0232
Au 8.59128 20.0249 6.26708
Au 5.24993 20.5504 10.3748
Pd 9.60608 18.6043 4.11221
Au 3.56757 20.9884 16.5984
Pd 6.47385 23.2894 13.2547
Au 7.33426 24.3005 18.6197
Pd 10.1279 21.5991 15.8426
Au 5.52735 22.6757 17.5859
Pd 8.77103 22.0764 18.1075
Au 10.7929 14.6332 26.5753
Pd 10.2748 23.9982 22.1448
Pd 11.0617 7.77148 8.77761
Pd 3.93773 9.8901 16.3516
Pd 10.0273 5.97618 10.6467
Pd 6.25918 10.8907 16.7461
Pd 6.88288 6.87768 11.7534
Pd 3.23717 14.4672 17.5363
Pd 5.63605 7.84853 17.139
Pd 5.75922 9.64242 21.3753
Pd 8.44219 5.71795 21.7154
Pd 10.8719 5.1898 20.8174
Pd 8.18833 11.0256 21.15
Pd 12.2509 9.36309 6.94401
Au 16.3263 8.76365 4.42571
Au 13.4206 8.18524 4.82695
Pd 10.011 10.2104 8.50368
Au 8.63588 7.97013 7.59451
Pd 13.9063 11.4089 6.30446
Au 8.89738 8.45311 10.5143
Pd 7.63393 10.8347 14.3113
Au 8.19376 8.3203 13.5814
Pd 11.5479 9.607 10.6829
Au 4.78999 10.9374 13.9291
Pd 5.96354 13.5134 17.5441
Au 6.64248 6.49985 19.8676
Pd 9.49149 10.445 12.3801
Au 5.59504 11.6295 23.2807
Pd 9.31029 10.344 25.6872
Au 4.49331 9.47496 18.9662
Pd 10.8446 12.7668 19.1746
Au 8.21191 8.44362 21.5027
Pd 12.6967 19.3148 22.7829
Au 10.0034 9.92051 23.1594
Pd 12.832 8.22207 23.7343
Pd 12.0842 10.6201 4.43143
Au 13.3502 12.9813 3.36134
Au 11.0071 11.8535 6.51783
Pd 8.00206 15.2552 8.00442
Au 12.6323 11.2998 8.7652
Pd 12.7514 13.8039 5.79497
Au 8.04466 11.1136 10.2431
Pd 6.41297 13.0548 14.7732
Au 8.68895 13.1278 12.3741
Pd 10.6532 12.1256 10.5512
Au 3.86692 12.5672 15.7414
Pd 5.3914 16.1296 17.7212
Au 7.12022 8.92188 19.0179
Pd 8.4449 12.7087 16.5719
Au 7.70679 17.6918 21.4454
Pd 9.29782 14.9195 20.9512
Au 10.4512 12.4283 21.7832
Pd 8.219 13.1089 19.2849
Au 14.2772 8.13347 26.044
Pd 13.3638 16.9814 23.7366
Au 16.7414 7.92498 24.7853
Pd 12.5313 10.9256 22.9354
Pd 12.1784 18.2589 3.97288
Au 12.8529 15.6362 3.32067
Au 9.84389 14.4018 6.12772
Pd 7.57127 16.4193 10.3456
Au 11.5587 13.8504 8.33763
Pd 11.7574 16.2746 5.69299
Au 9.67968 14.6501 10.2379
Pd 5.93657 17.5727 14.799
Au 6.9321 15.1569 13.1114
Pd 9.72718 16.149 12.4522
Au 4.17507 13.8147 13.1149
Pd 4.94039 18.6683 16.961
Au 7.65197 17.6397 17.3444
Pd 7.32464 15.3305 15.9946
Au 5.03302 16.584 21.4459
Pd 12.5053 17.3106 21.0376
Au 12.5218 6.05186 25.2516
Pd 9.61757 17.3811 19.5107
Au 9.66196 14.5977 23.6512
Pd 14.7634 10.0056 24.2512
Au 5.94841 19.8327 21.4373
Pd 12.3182 14.6185 24.3866
Pd 10.144 15.8223 3.74828
Au 11.1024 20.7042 4.90465
Au 8.67627 16.8776 5.77121
Pd 8.3669 18.0341 8.17273
Au 10.4831 16.3695 8.0941
Pd 10.811 18.5846 6.50649
Au 7.25956 17.8322 12.4997
Pd 5.6709 20.4143 14.9787
Au 8.77758 17.2398 14.7333
Pd 9.94883 17.8614 10.3976
Au 4.82247 15.1375 15.3397
Pd 6.87759 20.3417 17.4569
Au 9.66022 19.3449 17.3588
Pd 8.21187 19.7994 15.0362
Au 8.21783 19.7254 19.7068
Pd 10.5984 19.4227 21.1192
Au 11.9489 14.7588 21.7321
Pd 11.0647 20.9092 18.9289
Au 11.2281 21.6082 22.8053
Pd 14.9493 14.8528 24.7281
Au 15.069 19.6717 24.001
Pd 15.5429 15.5818 27.1571
Pd 8.00377 21.6092 8.46142
Au 10.3051 22.2063 7.00844
Au 5.46834 17.9439 9.63755
Pd 6.99571 20.581 12.6659
Au 10.134 20.043 8.68204
Pd 9.6189 23.5742 9.27338
Au 7.68595 19.5069 10.2842
Pd 12.0072 24.2171 7.9451
Au 9.51749 19.2877 12.6857
Pd 9.47502 21.4258 10.9318
Au 4.68003 22.9114 15.0886
Pd 8.92193 22.2958 13.3941
Au 12.4963 20.3493 16.6355
Pd 11.3524 21.1964 13.4693
Au 12.125 22.8147 20.4293
Pd 6.76258 21.9868 19.9522
Au 14.3779 16.8883 19.2606
Pd 6.50198 24.7075 16.0662
Au 13.4138 13.8372 27.175
Pd 14.0035 21.4709 22.0504
Au 16.0824 25.3398 19.1741
Pd 9.87738 24.1507 19.4735
Pd 15.3992 6.44654 5.74967
Pd 10.2634 4.3153 14.8166
Pd 12.4786 7.75852 14.6625
Pd 10.6808 7.95356 12.59
Pd 8.08122 8.96544 16.2932
Pd 10.603 5.585 17.6201
Pd 13.0432 4.89499 18.2599
Pd 8.66101 4.64741 19.2574
Pd 13.1846 3.88995 20.6372
Pd 17.2382 5.54994 20.1191
Pd 10.6485 5.48033 23.4897
Pd 14.7603 10.7518 3.91536
Au 12.9526 5.5203 5.34304
Au 12.649 6.2477 10.1651
Pd 15.0222 8.95376 6.80912
Au 7.94134 4.31974 11.2081
Pd 13.4184 6.8923 7.52123
Au 5.76989 8.62972 14.6474
Pd 9.87802 6.8719 15.3831
Au 9.00123 5.84237 13.0475
Pd 13.827 8.72768 9.37337
Au 9.90098 5.47521 8.01653
Pd 9.41481 7.26334 19.5537
Au 13.4136 7.49116 17.2829
Pd 10.9305 11.2466 16.9245
Au 7.10904 6.19496 15.015
Pd 10.6961 7.6366 22.0266
Au 8.41273 7.12832 23.9176
Pd 12.7695 9.81483 18.5058
Au 6.16533 7.15617 22.4324
Pd 18.463 12.5026 22.5322
Au 7.25131 9.54057 23.7769
Pd 17.2335 6.18593 22.7479
Pd 15.6401 15.3659 3.05085
Au 15.7486 12.8163 2.36748
Au 15.6026 13.2423 5.06195
Pd 14.3879 13.4087 8.04423
Au 15.425 10.8881 8.72052
Pd 17.3062 15.4373 5.16895
Au 13.982 10.903 11.1279
Pd 12.1534 10.9019 13.1115
Au 10.3872 9.50347 14.8752
Pd 15.8061 12.9934 10.5318
Au 10.1294 12.1032 14.5009
Pd 10.9299 13.9613 16.7814
Au 10.6343 8.48601 17.4597
Pd 12.66 12.983 15.0535
Au 11.4845 15.4483 19.1594
Pd 13.9942 13.256 22.5147
Au 8.86499 10.6872 18.365
Pd 13.2867 12.355 17.6288
Au 10.8696 12.3268 24.5724
Pd 10.5942 9.87735 20.2767
Au 12.1104 9.97842 25.5963
Pd 13.6012 12.3373 25.0295
Pd 14.8336 17.9336 3.79883
Au 17.5379 17.5823 3.59743
Au 14.5272 15.7826 5.41025
Pd 13.2995 15.9237 7.87993
Au 16.0963 15.4574 7.60119
Pd 16.3323 17.8285 6.09326
Au 13.0773 13.4651 10.5403
Pd 11.3726 13.7743 12.6448
Au 14.323 12.9269 12.9495
Pd 14.8109 15.5612 10.0653
Au 9.39658 14.5958 14.6286
Pd 10.5946 16.7398 16.7016
Au 13.2503 15.3118 17.1417
Pd 11.8842 15.6543 14.6347
Au 13.9426 14.1164 19.6688
Pd 8.93115 15.2053 18.039
Au 7.17866 15.5451 22.9239
Pd 17.9262 19.0654 21.3466
Au 6.76306 11.3 25.7006
Pd 16.1254 12.38 23.9765
Au 10.5628 7.86002 25.0754
Pd 16.4335 15.1486 19.1444
Pd 13.8028 20.4161 4.73599
Au 16.5036 20.0505 4.53655
Au 13.595 18.2263 6.27937
Pd 12.3452 18.3415 8.81886
Au 15.1308 17.9179 8.60715
Pd 15.3252 20.2342 7.08024
Au 11.9886 16.0713 10.4125
Pd 11.9575 17.7458 12.8652
Au 13.5012 15.5179 12.4824
Pd 13.9072 18.0575 11.085
Au 10.9671 18.9124 14.999
Pd 11.5321 23.1888 17.498
Au 13.4173 17.6923 15.7075
Pd 15.1567 22.6495 13.5468
Au 12.0756 18.1767 18.3649
Pd 13.2229 19.8318 20.1172
Au 16.939 19.8845 26.3538
Pd 13.8278 21.8819 18.3963
Au 16.5944 10.2873 26.1168
Pd 17.6732 23.4771 20.8406
Au 18.9182 21.539 25.2488
Pd 16.6013 22.6878 18.2182
Pd 12.7841 22.789 5.80911
Au 16.9992 22.1954 8.05804
Au 12.5696 20.6027 7.253
Pd 11.8451 22.0313 9.46719
Au 14.163 20.3639 9.63982
Pd 15.8835 22.366 10.7127
Au 11.7525 19.801 11.0894
Pd 15.5364 27.1762 10.4217
Au 11.1636 25.5726 10.1235
Pd 13.4618 24.0448 10.3955
Au 13.7256 19.9185 14.05
Pd 8.40145 24.9323 14.2167
Au 9.19486 24.405 16.7314
Pd 10.7834 23.8703 14.5661
Au 12.4513 27.8324 16.8117
Pd 7.49402 22.3778 15.6549
Au 13.3565 24.7076 18.8232
Pd 10.3918 26.4568 15.4464
Au 12.6422 19.013 25.456
Pd 15.0014 23.2251 20.4287
Au 13.2985 21.6068 24.5772
Pd 11.0766 26.0066 18.0941
Pd 12.3426 4.53303 7.77683
Pd 13.8177 4.32986 11.6093
Pd 14.6958 3.95324 6.74287
Pd 7.99261 6.59869 17.477
Pd 7.81232 3.75318 13.9387
Pd 12.5233 3.13361 14.0635
Pd 10.2022 3.37513 12.3669
Pd 12.038 7.17027 19.5064
Pd 15.2947 4.70324 21.8631
Pd 17.4043 8.15708 20.8796
Pd 14.5758 6.4373 20.0161
Pd 16.0968 7.18023 8.44369
Au 17.0842 4.95438 7.21852
Au 11.4237 3.75414 10.098
Pd 15.294 6.80193 10.978
Au 13.7555 2.6109 9.32188
Pd 16.136 9.33338 10.9023
Au 8.451 4.16189 16.6101
Pd 15.233 7.87511 15.3862
Au 11.8218 5.53171 12.8823
Pd 16.7209 7.71952 13.1052
Au 10.9787 3.26696 19.1521
Pd 13.0113 6.27641 22.0514
Au 11.436 3.01072 16.6834
Pd 21.8618 8.21625 15.4976
Au 14.0651 2.94864 16.6137
Pd 15.1988 9.16393 19.7159
Au 15.5111 4.04821 18.8235
Pd 15.1422 5.38179 16.5004
Au 21.7109 8.3755 22.502
Pd 13.04 4.14434 23.3895
Au 18.995 9.44489 25.3389
Pd 15.256 8.01898 22.3662
Pd 18.0546 13.8929 3.17369
Au 17.8008 7.56866 6.20513
Au 16.6786 10.8892 6.21175
Pd 17.0984 12.9521 8.10407
Au 14.705 9.75644 13.5416
Pd 18.291 12.9614 5.72077
Au 13.3072 8.11281 12.0846
Pd 12.9838 10.1306 15.7095
Au 17.1427 9.91752 14.8472
Pd 17.0279 13.4692 14.5245
Au 13.0091 8.98503 21.1657
Pd 15.6662 11.831 19.0305
Au 15.2442 9.88067 17.1432
Pd 17.5369 11.8536 16.8483
Au 15.211 10.9096 21.7332
Pd 21.3088 16.2949 23.0854
Au 19.5004 14.7003 21.3976
Pd 18.3909 13.2501 19.2181
Au 14.8679 6.05992 24.164
Pd 17.3237 10.0222 23.1951
Au 25.1666 11.519 22.3079
Pd 17.7315 10.9004 20.593
Pd 19.2008 19.6216 4.53729
Au 20.2634 17.2832 3.59741
Au 19.0831 17.3538 5.96989
Pd 17.8615 17.4393 8.49096
Au 18.8984 14.9934 7.42604
Pd 19.4022 20.9765 9.05023
Au 17.5482 15.0683 9.9396
Pd 16.1961 15.0319 12.392
Au 17.3217 16.2414 14.5354
Pd 17.8754 18.6042 13.161
Au 15.1002 11.8212 15.3202
Pd 15.5186 13.7502 17.1128
Au 18.0172 14.6731 16.7745
Pd 18.3855 17.4454 16.6691
Au 12.9766 11.7135 20.3807
Pd 16.337 13.3795 21.1291
Au 11.4059 12.0254 27.1439
Pd 15.7771 16.5733 16.8595
Au 14.1219 10.8156 27.1145
Pd 17.7772 19.4216 23.9271
Au 15.5151 23.8468 22.9994
Pd 18.7842 16.9292 23.6163
Pd 14.2822 22.6301 8.1808
Au 18.1753 22.0431 5.51859
Au 18.0509 19.7797 6.98976
Pd 16.8829 19.879 9.55782
Au 18.3159 21.0066 11.6037
Pd 18.4354 23.3506 10.0441
Au 16.5885 17.5079 11.0196
Pd 15.0834 17.4944 13.4334
Au 15.2979 21.3002 16.0443
Pd 17.3298 21.0982 14.1438
Au 14.7132 15.0189 14.8372
Pd 13.0119 22.5393 15.1988
Au 19.9713 17.3685 21.0531
Pd 20.1379 25.2596 17.1102
Au 14.7325 19.1705 17.7443
Pd 14.8003 26.5031 17.1086
Au 19.7619 14.2571 24.1606
Pd 13.0419 24.4247 13.2276
Au 19.4785 18.736 18.6977
Pd 15.007 17.9594 26.0328
Au 22.4375 24.1275 22.0751
Pd 15.1724 18.4708 21.502
Pd 18.5679 25.6112 8.49321
Au 17.1189 24.441 6.59464
Au 15.4702 22.4905 5.59079
Pd 17.6145 23.4435 12.6405
Au 15.6801 20.0203 12.1462
Pd 13.1737 26.5391 11.5666
Au 13.3978 21.7998 11.8606
Pd 7.01915 22.4698 10.775
Au 14.4541 24.831 6.72611
Pd 20.0509 26.9382 10.4814
Au 11.0706 23.4032 11.7606
Pd 12.7351 27.0223 14.1565
Au 8.61636 24.4291 11.6237
Pd 21.5215 26.1451 14.8443
Au 10.6594 25.9364 12.7723
Pd 11.8029 25.6 20.7515
Au 14.2919 28.7774 15.3107
Pd 13.4091 27.3167 19.2885
Au 14.3918 25.7678 21.3393
Pd 17.0681 25.8559 21.7859
Au 19.7061 25.2473 22.0298
Pd 15.0159 25.4787 14.6795
Pd 15.563 2.3751 11.5006
Pd 14.7546 5.00718 9.09213
Pd 17.3364 5.1797 9.85369
Pd 12.6906 2.03044 11.696
Pd 15.1029 3.47521 14.1711
Pd 12.6141 5.30476 15.6329
Pd 17.7546 3.03443 13.6741
Pd 17.7358 7.73248 16.2871
Pd 16.143 7.18462 18.1935
Pd 17.9253 5.1688 17.5017
Pd 14.4357 6.04267 13.6596
Pd 17.6332 9.253 8.31454
Au 16.3665 2.89475 8.95821
Au 20.5689 7.67194 11.7998
Pd 18.5846 9.68133 12.3146
Au 20.0057 5.11785 10.4272
Pd 19.2399 11.2519 7.58482
Au 16.3853 4.76862 12.2333
Pd 19.2735 7.90431 14.1943
Au 17.1042 5.57314 14.7845
Pd 21.0842 9.84189 13.5014
Au 21.8301 4.61394 16.1914
Pd 19.3836 4.3257 15.2652
Au 21.8648 7.14771 20.1244
Pd 19.5286 9.82719 16.1245
Au 16.7811 3.19654 16.2404
Pd 17.5843 9.54032 18.3094
Au 22.7429 6.65319 17.5825
Pd 18.9258 7.3157 18.8043
Au 21.9987 13.7101 22.6086
Pd 20.5482 5.23462 18.6424
Au 24.2552 8.98666 21.8757
Pd 20.0802 6.60775 16.4646
Pd 17.4578 11.3226 3.6586
Au 19.0036 9.87156 5.20592
Au 17.9272 11.284 10.1611
Pd 16.6028 11.4707 12.6631
Au 20.3812 11.6251 11.5556
Pd 19.6182 13.3237 9.46354
Au 19.1242 11.7368 14.2035
Pd 19.5649 14.508 14.3343
Au 23.5563 10.9654 12.9898
Pd 18.3693 13.4004 12.0198
Au 19.7218 11.0413 18.5565
Pd 20.0937 12.9095 16.612
Au 21.9514 10.9974 15.8203
Pd 21.6564 12.7725 13.8451
Au 20.6233 12.0495 20.8762
Pd 17.3072 16.4848 21.2487
Au 23.0846 15.6026 20.9493
Pd 21.0551 8.74728 18.0612
Au 19.8777 9.15682 20.6583
Pd 22.5989 11.0066 22.6817
Au 19.5877 6.28226 21.1796
Pd 20.0344 10.4949 23.1113
Pd 19.5285 23.2581 7.54104
Au 23.7997 17.4337 6.8506
Au 20.0561 14.9037 4.73818
Pd 19.1671 18.5563 10.6542
Au 20.1488 16.145 9.6698
Pd 20.3517 18.5776 8.1114
Au 18.8085 16.1774 12.1629
Pd 20.0057 17.2236 14.4086
Au 20.9439 14.4222 11.7809
Pd 21.4342 17.1728 11.9153
Au 22.1819 15.5016 14.2011
Pd 16.8637 18.0094 19.0306
Au 20.7315 20.0515 20.5947
Pd 23.9887 19.3201 16.3733
Au 18.9982 15.9728 18.9526
Pd 19.0924 7.98906 23.1395
Au 24.5796 22.5312 21.8642
Pd 21.1797 14.2263 19.1686
Au 20.0951 16.2564 25.9168
Pd 18.4891 12.0358 25.1915
Au 21.2697 12.1519 24.8361
Pd 20.4044 22.9792 20.7809
Pd 20.8794 24.5848 9.55116
Au 21.8691 22.2227 8.5811
Au 21.5783 19.7809 10.276
Pd 16.9263 23.5251 15.2491
Au 20.4473 19.5707 12.8836
Pd 20.7745 22.2702 11.0475
Au 16.2734 18.8399 15.3845
Pd 14.8006 23.8512 16.779
Au 22.5906 18.2443 14.217
Pd 19.2327 19.6741 15.3851
Au 21.2818 18.4216 16.6565
Pd 19.1152 23.2634 18.4382
Au 20.6874 21.0777 17.8868
Pd 24.4594 20.0265 20.8944
Au 21.5752 20.6927 25.0187
Pd 12.6357 25.1802 16.044
Au 18.1082 23.6114 23.5387
Pd 15.8228 20.5486 19.8187
Au 17.6951 14.6246 25.8469
Pd 18.663 27.7523 20.6544
Au 23.3966 22.4978 24.2253
Pd 19.2973 21.3175 22.5723
Pd 19.9484 24.6262 12.0642
Au 19.2142 27.3342 15.7753
Au 23.1063 23.6647 10.7266
Pd 21.773 23.6481 18.4453
Au 17.6093 28.2208 12.0584
Pd 19.9437 22.1394 13.5822
Au 17.8405 27.9938 9.41496
Pd 13.6349 26.1718 8.87131
Au 19.078 22.2572 16.0773
Pd 15.1158 28.9075 17.8464
Au 16.131 26.7504 7.77536
Pd 15.4055 24.9419 12.0096
Au 26.0467 23.8015 14.5803
Pd 22.6256 25.9553 17.4569
Au 24.5449 24.9651 12.5896
Pd 15.2169 27.5728 13.0807
Au 12.9873 16.3488 26.4228
Pd 17.4584 25.4315 16.8458
Au 17.5708 27.7685 18.1385
Pd 18.728 25.5668 19.4438
Au 16.1776 21.9729 24.8487
Pd 21.6944 23.427 15.8559
Pd 18.0957 7.5574 10.6803
Pd 22.3427 5.70771 11.578
Pd 21.4693 10.7323 6.14036
Pd 18.2532 3.11384 11.1114
Pd 20.3922 3.76742 12.7616
Pd 21.1899 6.0178 13.9731
Pd 27.3479 11.5772 18.5672
Pd 24.3402 7.91255 19.3898
Pd 18.7553 5.75159 12.6807
Pd 25.9302 15.6454 20.2193
Pd 23.5402 9.66572 17.6045
Pd 18.9765 6.62102 8.37028
Au 20.1701 12.1584 4.1981
Au 21.4596 7.13089 9.30236
Pd 19.919 9.40687 9.74182
Au 23.8496 7.67899 10.2498
Pd 22.6878 9.24495 8.17319
Au 23.1399 7.92446 12.9257
Pd 22.3036 9.7049 10.9454
Au 24.3907 10.7224 9.56356
Pd 24.7292 13.4298 9.2496
Au 25.7362 7.76066 13.9849
Pd 26.3079 10.5725 13.9549
Au 27.1534 12.3224 16.0444
Pd 25.5797 12.0371 11.5809
Au 25.1398 7.56162 16.739
Pd 24.1061 9.41321 15.0334
Au 25.2734 9.29299 11.7817
Pd 23.4228 12.7075 20.5269
Au 22.4724 9.94592 20.1596
Pd 24.845 14.2964 22.3873
Au 22.3078 14.8278 25.1646
Pd 26.0712 10.0272 16.7883
Pd 21.0274 13.2988 6.68785
Au 22.4831 16.1299 4.77789
Au 20.2602 8.60044 7.18582
Pd 22.1304 14.2652 8.9519
Au 23.6885 14.7113 6.84333
Pd 21.5639 18.5414 5.64722
Au 21.551 11.5049 8.92997
Pd 22.8992 12.614 11.016
Au 23.5108 12.063 7.29851
Pd 25.9403 14.7049 11.3165
Au 24.5341 12.1076 15.2419
Pd 22.2013 11.9358 18.3053
Au 26.7089 13.3257 13.6389
Pd 24.1066 13.8214 13.173
Au 25.2221 10.4195 19.7769
Pd 26.034 13.0285 20.3081
Au 23.6891 6.22212 14.9746
Pd 23.6172 19.39 23.51
Au 17.5479 17.265 26.0801
Pd 16.1068 17.168 23.719
Au 19.6403 18.9494 25.8227
Pd 17.1751 14.7532 23.236
Pd 22.7818 19.7803 7.81355
Au 20.5627 20.9182 6.54234
Au 21.3553 16.1617 7.12415
Pd 22.5848 17.3793 9.29008
Au 26.1465 17.3666 11.1212
Pd 24.9505 16.0703 8.94501
Au 23.3798 15.3816 10.97
Pd 27.0113 15.9694 13.4466
Au 27.9167 14.8331 15.6891
Pd 27.1219 18.6432 13.3702
Au 26.803 19.5166 16.0071
Pd 25.2418 14.7494 15.664
Au 22.6828 13.8167 16.3414
Pd 25.4575 17.4232 15.1581
Au 26.7704 14.2407 18.0221
Pd 21.6931 16.8749 18.9497
Au 23.3707 16.5957 16.6607
Pd 22.0697 17.8955 25.1212
Au 23.8613 16.4769 23.6756
Pd 20.5492 19.0067 23.1936
Au 23.8542 12.779 24.32
Pd 22.5515 18.192 21.4078
Pd 22.19 23.6949 13.2761
Au 23.9534 21.1464 10.0245
Au 22.702 21.078 12.559
Pd 21.7354 20.7523 15.208
Au 24.9773 18.7771 9.08913
Pd 25.0297 22.4028 12.3069
Au 23.7386 18.6351 11.5145
Pd 24.7483 19.765 13.8224
Au 28.1502 17.3683 15.513
Pd 26.0203 20.0724 11.4216
Au 26.3213 16.8528 17.5638
Pd 24.3191 17.4651 19.2166
Au 24.8414 12.2859 17.8736
Pd 24.4342 16.5174 13.0375
Au 20.651 15.6559 16.6807
Pd 22.7659 21.8866 19.9989
Au 25.3155 22.2411 19.2483
Pd 24.011 14.7378 18.5596
Au 20.7615 23.17 23.9089
Pd 14.7769 15.699 21.7884
Au 25.1633 17.6198 21.7899
Pd 25.9207 21.8652 16.5998
Pd 15.9634 24.5921 9.21934
Au 17.4336 26.0251 13.7453
Au 19.8185 27.1533 13.1093
Pd 22.6962 19.4436 18.8207
Au 22.1664 26.0533 12.0185
Pd 23.7938 25.0513 15.0609
Au 17.7377 25.7685 11.0263
Pd 22.1048 21.2449 22.4266
Au 23.9899 22.229 14.805
Pd 19.415 24.5775 14.6709
Au 25.6022 19.7017 18.4395
Pd 26.7992 21.329 14.0127
Au 23.8691 24.4816 19.8496
Pd 23.3201 21.6406 17.3795
Au 15.9336 27.7908 20.217
Pd 16.622 27.778 15.5741
Au 21.3843 25.7656 19.9898
Pd 24.4512 23.9827 17.2821
Au 17.4919 20.2438 17.4115
Pd 18.4331 21.1337 19.8082
Au 16.6464 21.3718 22.2452
Pd 20.2504 27.5435 18.3392
