665
Atoms. Timestep: 20922
Pd 12.7222 20.8255 20.6032
Pd 23.5263 7.66151 16.8459
Pd 7.377 9.80376 13.5509
Pd 7.85474 16.6816 18.2055
Pd 14.6134 10.1408 9.16346
Au 20.5709 16.0627 13.4687
Au 13.7723 15.8142 12.2083
Pd 15.7594 6.71053 22.4863
Au 4.63296 15.1772 21.6203
Pd 6.5981 13.2198 22.3054
Au 10.7758 23.3182 25.5514
Pd 11.5112 9.01782 21.416
Au 11.4778 12.6636 5.83435
Pd 13.5512 18.1985 16.9931
Au 12.9347 10.1667 6.87123
Pd 16.8745 14.0255 24.8741
Au 23.5634 5.95268 10.0818
Au 11.6787 10.0826 4.62644
Pd 18.1489 17.3433 10.0208
Au 12.3765 4.47179 22.1344
Pd 18.7884 6.49646 22.0464
Au 21.4277 5.88826 12.2144
Pd 20.4412 4.43263 21.1543
Au 9.43107 10.1417 20.1193
Pd 23.1457 7.4397 13.9535
Au 15.9147 3.00705 19.1769
Pd 15.0555 15.0985 14.3887
Au 15.3877 11.8208 24.089
Au 10.4039 25.3439 18.2634
Pd 9.54525 10.8803 6.17664
Au 14.1368 10.0619 25.9561
Pd 16.0344 15.5798 26.7531
Au 17.4003 9.13871 5.34881
Pd 19.9087 14.9315 3.50245
Au 25.3621 7.97457 11.127
Pd 9.07656 21.1026 9.79547
Au 13.7529 22.5384 22.4981
Pd 13.5447 7.75225 7.87457
Au 12.2822 15.8647 19.0601
Au 11.2725 12.7484 12.3594
Pd 15.2953 20.6538 24.7403
Au 21.8278 16.9693 17.9405
Pd 9.04231 24.4424 23.6683
Au 9.30943 13.7519 26.2526
Pd 9.2403 13.5001 7.34874
Au 26.5054 17.5328 10.5668
Pd 11.8682 9.26873 12.1543
Au 23.1464 8.59229 22.3753
Pd 19.0255 5.75186 19.4527
Au 15.3837 19.1298 6.61401
Au 15.2683 28.5787 14.9355
Pd 26.0419 13.8282 16.5841
Au 12.0683 3.68534 8.24913
Pd 15.2257 7.64964 25.1584
Au 18.5453 6.91335 14.6643
Pd 21.4705 14.1413 18.009
Au 17.9514 26.0329 18.0829
Pd 21.1895 12.6398 21.4378
Au 22.9955 3.7675 11.7798
Pd 16.4788 24.4467 13.5716
Pd 7.20492 8.57038 19.9895
Pd 22.3716 14.979 8.399
Pd 13.5244 7.66928 13.4762
Pd 20.1832 19.915 21.1146
Pd 17.0296 9.66932 19.231
Pd 8.27737 14.4499 16.624
Pd 21.3221 4.53905 9.80687
Pd 6.04319 21.3235 16.8812
Pd 9.70411 22.9586 7.9275
Pd 4.06515 20.988 14.9332
Pd 19.9865 24.9544 16.3059
Pd 19.7015 9.15113 15.4935
Au 19.8473 13.597 7.7698
Au 19.3373 2.07858 14.5108
Pd 17.8904 10.5588 23.4307
Au 27.3732 15.0482 19.6843
Pd 21.8122 13.5117 12.5873
Au 14.5815 5.12776 20.3465
Pd 10.6635 7.25974 16.8628
Au 20.9187 22.362 16.2653
Pd 15.4102 9.35005 23.2313
Au 7.43766 14.7322 24.6713
Pd 14.1655 22.6922 11.0775
Au 21.4499 23.9237 13.6696
Pd 16.0508 26.1035 20.1879
Au 17.9117 16.1243 14.6279
Pd 12.8581 11.1666 13.8415
Au 19.9941 16.2911 8.43407
Pd 17.8539 25.6986 9.44894
Au 18.3553 13.0689 22.5115
Pd 5.5029 18.3965 22.4037
Au 24.1526 18.5322 21.4767
Pd 15.922 21.284 19.869
Pd 12.8112 14.0338 10.3872
Au 24.4998 23.3851 17.2284
Au 16.8033 18.515 23.6042
Pd 10.7781 11.6008 22.2237
Au 13.9573 14.3297 27.7426
Pd 14.0709 5.26111 14.8684
Au 22.3707 17.5769 8.22185
Pd 9.93726 16.1693 9.57177
Au 12.1641 5.86073 19.2077
Pd 8.71097 12.4584 23.8663
Au 12.6256 12.3275 26.6435
Pd 8.72585 16.9923 20.6218
Au 10.6492 15.2107 5.59271
Pd 13.9533 7.89752 10.7063
Au 10.8945 4.17368 10.6347
Pd 14.1156 18.8351 4.16653
Au 16.0204 13.4536 5.24313
Pd 5.71008 15.0325 18.0332
Au 16.3268 8.68285 7.74766
Pd 19.2005 25.4538 13.7627
Au 25.3143 9.02655 18.4189
Pd 16.6089 21.7973 14.6641
Pd 15.4205 16.1489 24.1386
Au 15.7805 18.2616 26.1761
Au 15.589 12.3808 26.7065
Pd 15.4073 27.0487 12.8697
Au 10.3428 11.3509 25.6674
Pd 11.1126 19.4341 16.4048
Au 18.0845 17.5097 6.87821
Pd 5.24779 11.2099 11.2282
Au 26.188 16.39 17.6125
Pd 22.4103 14.3936 4.11684
Au 16.8511 13.6621 15.6456
Pd 10.0453 21.4401 14.508
Au 23.7191 22.2876 19.642
Pd 9.37306 17.5667 11.7059
Au 15.8874 20.8589 4.64763
Pd 11.2287 17.356 7.49076
Au 21.8978 2.30946 13.7213
Pd 13.8147 21.3244 7.5064
Au 8.77182 12.6114 20.7045
Pd 13.5825 5.98641 23.9655
Au 20.3237 11.6236 23.7837
Pd 12.72 8.51689 18.8992
Pd 16.9741 11.2945 11.5694
Au 12.3732 14.3159 14.2955
Au 18.4342 21.4366 10.0859
Pd 11.607 23.2691 20.3008
Au 22.8189 4.97984 19.7681
Pd 19.949 11.6376 9.52794
Au 4.38963 17.4336 17.6768
Pd 11.0408 17.6294 26.4522
Au 15.4487 25.1103 10.8344
Pd 5.43902 19.7858 13.0019
Au 4.9084 17.8689 8.17153
Pd 12.8673 2.86282 15.3957
Au 12.46 20.0075 13.9151
Pd 24.8979 5.91073 15.3458
Au 26.455 19.1901 14.8865
Pd 20.0605 19.0638 8.83339
Au 15.6609 6.16251 8.24001
Pd 18.6673 15.328 11.7555
Au 22.0974 6.70703 7.91833
Pd 25.6732 12.2426 9.8313
Au 25.5276 11.6976 18.2073
Pd 7.76343 25.6973 19.1865
Pd 25.1306 20.0149 19.19
Au 16.8285 25.7624 22.7084
Au 6.79599 25.028 13.9333
Pd 18.5584 22.1439 20.8044
Au 4.86761 15.4896 9.50157
Pd 22.6566 13.1656 6.46811
Au 10.2881 9.45546 23.7942
Pd 23.0922 10.3931 17.9616
Au 18.6329 2.64073 17.1277
Pd 14.219 23.3102 19.8606
Au 22.9519 16.1856 22.7432
Pd 11.2092 11.9764 15.7843
Au 16.6283 5.4282 13.2394
Pd 15.0144 3.18651 13.5022
Au 12.3635 21.7486 15.9102
Pd 27.9891 17.09 15.7794
Au 9.23008 24.1487 20.9868
Pd 23.0716 15.9836 12.8453
Au 19.6904 23.7711 9.22708
Pd 27.4472 17.3028 13.2153
Au 10.1898 4.03115 15.157
Pd 20.9311 21.3213 18.946
Pd 18.7708 20.6172 16.047
Pd 12.4645 20.3992 23.2981
Pd 26.957 18.9853 17.5395
Pd 24.7141 13.76 7.95634
Pd 15.8623 16.8283 16.2975
Pd 17.5161 4.06927 15.2169
Pd 17.9476 13.393 10.0114
Pd 19.2513 13.5787 19.9284
Pd 19.3475 19.2506 23.588
Pd 14.2196 13.07 12.605
Pd 26.1091 12.7562 20.6547
Pd 22.0458 18.5256 12.8258
Au 12.6543 15.8709 23.8196
Au 10.4944 27.9457 13.1046
Pd 9.65759 13.6774 14.2154
Au 15.9953 15.3265 10.6725
Pd 19.4847 5.22611 16.6937
Au 19.9653 9.97979 5.14403
Pd 21.0114 17.009 10.8202
Au 5.30502 8.58195 11.443
Pd 21.1499 21.6091 9.57415
Au 5.59399 21.1683 21.6845
Pd 7.87653 12.0387 9.70004
Au 27.4425 9.89904 14.6253
Pd 17.4729 19.5282 8.4562
Au 7.06948 18.3238 6.6766
Pd 13.7466 11.9997 4.68621
Au 7.26311 22.7856 8.97017
Pd 9.99833 10.7363 13.6737
Au 10.9802 20.4668 7.85353
Pd 10.4191 20.3932 11.9543
Au 6.01682 10.1033 8.91812
Pd 18.2364 9.66306 13.204
Pd 20.7277 8.4311 13.0623
Au 26.4265 14.8203 9.82329
Au 5.81357 22.4761 13.3837
Pd 20.2016 22.4035 11.9601
Au 19.3794 21.4901 7.496
Pd 5.82788 13.1241 16.1229
Au 20.6463 11.0666 13.7981
Pd 18.1397 12.929 3.69615
Au 13.1747 22.0687 25.3127
Pd 10.0691 7.6775 19.3908
Au 25.2554 15.7437 21.3581
Pd 7.22451 12.7707 18.4058
Au 4.84679 13.2157 19.9045
Pd 9.66913 14.8928 19.1251
Au 12.4489 14.3454 3.69065
Pd 13.4953 26.5225 9.11398
Au 12.9585 8.59862 23.8159
Pd 22.7244 8.13879 11.2928
Au 25.784 8.02188 13.7769
Pd 8.60916 21.9546 24.9643
Au 13.5644 12.5308 7.95158
Pd 3.4636 13.4879 17.5238
Pd 24.9677 9.99471 15.8439
Au 5.84273 17.0845 20.0683
Au 12.6664 26.3487 16.9509
Pd 8.5586 14.9838 11.844
Au 25.0776 6.28782 18.6612
Pd 14.1768 25.1144 21.9741
Au 12.7889 11.3866 10.6202
Pd 14.5539 9.47589 15.0458
Au 16.3607 13.1667 7.78758
Pd 11.0898 18.7992 9.98749
Au 9.57523 8.00558 10.5883
Pd 9.85994 26.8514 20.3834
Au 6.17501 15.7131 7.19575
Pd 16.7707 23.7595 19.073
Au 10.5701 21.2845 5.39856
Pd 21.0386 11.7594 16.2946
Au 8.45703 18.4812 16.227
Pd 13.4506 28.8176 16.7842
Au 17.4359 8.68512 21.6101
Pd 4.34654 15.3299 15.7188
Au 6.26886 23.7734 17.9914
Pd 10.1922 23.3826 16.3348
Pd 19.72 5.49134 7.95463
Au 24.2408 12.3895 12.0674
Au 6.71706 17.4425 24.8495
Pd 19.909 18.3965 14.7444
Au 24.4941 14.2343 14.3096
Pd 7.62409 9.79147 11.0624
Au 21.9047 14.2953 15.2096
Pd 7.5528 20.4027 14.4738
Au 2.92746 18.3296 15.537
Pd 8.85933 23.1834 18.5764
Au 15.9486 3.65434 10.8422
Pd 8.77034 9.7116 8.51575
Au 17.8239 15.7667 22.9527
Pd 7.61125 19.4181 11.3284
Au 11.992 18.727 19.0247
Pd 19.0447 13.2753 17.201
Au 5.4111 12.8511 8.84364
Pd 22.6486 4.7857 14.3517
Au 5.61011 18.9507 15.6839
Pd 7.17066 14.7431 20.2204
Au 2.36516 13.6898 15.0157
Pd 18.524 3.10274 19.6961
Pd 19.505 14.3386 24.6259
Au 16.8833 13.7219 12.8272
Au 10.095 13.5434 10.0743
Pd 14.8521 8.68723 20.6243
Au 23.746 21.6924 9.14161
Pd 16.0041 15.9987 6.17863
Au 8.31113 20.8591 6.96556
Pd 9.00948 18.7102 8.4783
Au 17.0886 12.4062 19.079
Pd 13.1102 6.98258 21.5115
Au 11.4551 28.1408 18.5643
Pd 20.2968 15.1146 21.9043
Au 14.237 17.7827 14.2889
Pd 17.7527 26.6164 11.9266
Au 27.9587 12.6406 18.5334
Pd 10.5949 9.83 17.5862
Au 20.2006 7.52079 6.20254
Pd 15.7057 17.4609 8.71718
Au 8.62152 25.1653 9.35677
Pd 18.4536 17.9414 16.8739
Au 25.5878 21.1077 16.4351
Pd 17.0554 19.3824 11.1938
Pd 22.4566 15.0055 20.2854
Pd 8.2513 12.2584 12.3944
Pd 24.0809 16.9967 19.3198
Pd 23.5504 12.7981 16.8561
Pd 14.1691 22.3028 13.726
Pd 16.5829 8.87947 10.6233
Pd 19.1101 17.1645 4.46079
Pd 10.9192 2.74568 17.3179
Pd 18.3517 11.5175 15.1401
Pd 18.8359 17.8848 12.5191
Pd 17.3599 17.6637 19.31
Pd 5.01299 11.2305 18.0761
Au 21.9516 18.8879 23.0384
Au 25.3788 21.3322 13.4895
Pd 22.3988 17.2193 15.2314
Au 16.5956 18.0248 4.40193
Pd 17.1318 4.89495 17.8248
Au 16.2539 11.1526 3.87347
Pd 15.2873 7.13468 5.6956
Au 21.9358 13.8706 23.7273
Pd 15.2343 12.683 10.1704
Au 6.45295 11.0991 20.4135
Pd 14.8863 25.2513 17.9939
Au 20.3422 3.01713 11.8192
Pd 16.5007 22.0108 11.9943
Au 21.2653 19.4432 16.6952
Pd 12.5809 11.2099 24.2032
Au 14.9744 23.4432 6.11277
Pd 16.2194 11.3569 21.4139
Au 10.7815 25.885 25.0215
Pd 21.7403 10.8077 11.4833
Au 23.6521 15.7361 6.06977
Pd 6.60025 19.0785 18.2776
Pd 4.64455 9.68895 13.7037
Au 8.85563 9.06571 15.6573
Au 11.732 22.6758 12.6962
Pd 9.85522 23.6006 10.9523
Au 11.2126 6.457 8.98517
Pd 11.651 14.9339 26.4582
Au 6.11279 10.3277 15.8393
Pd 24.8362 14.3723 19.0153
Au 12.6568 13.1224 18.0282
Pd 8.73285 6.30598 15.1923
Au 19.4711 8.39204 19.8835
Pd 14.7634 27.6161 22.01
Au 27.1981 19.7292 12.2858
Pd 18.4487 20.5243 13.2168
Au 23.9047 10.9434 7.69853
Pd 8.7686 21.0068 17.0024
Au 9.50513 5.28375 12.7994
Pd 6.58556 19.9463 8.84785
Au 15.9217 27.6008 17.2878
Pd 17.7015 7.92717 24.1146
Au 24.13 8.24732 8.62711
Pd 5.87092 12.0998 13.6919
Pd 12.0858 17.9472 12.3204
Au 28.6254 17.0768 18.44
Au 10.9399 11.5912 8.35332
Pd 20.1952 19.7732 11.3927
Au 19.1679 23.2041 18.2196
Pd 17.4961 15.391 8.37507
Au 18.1159 23.995 11.5283
Pd 10.4218 25.972 15.4369
Au 17.2551 24.314 16.179
Pd 11.6806 6.55836 11.6972
Au 20.3926 25.274 11.3672
Pd 23.8092 17.2007 10.5799
Au 10.1872 5.54461 21.0648
Pd 10.5795 18.9108 21.2694
Au 12.7182 25.7349 19.7561
Pd 14.5191 15.0529 8.46089
Au 2.14405 15.9208 16.86
Pd 23.2993 22.2651 14.9979
Au 7.00716 20.0495 23.8297
Pd 11.2781 18.2095 23.9165
Au 8.35733 27.2389 14.5709
Pd 21.314 6.92594 21.189
Pd 17.429 21.2989 23.2495
Au 18.076 16.8883 25.3779
Au 24.0049 6.26122 21.5814
Pd 23.8935 9.81436 13.0812
Au 27.1734 10.3068 19.9995
Pd 20.0584 9.00641 22.6249
Au 16.7091 9.87783 25.739
Pd 9.26933 16.2128 14.6213
Au 17.789 19.8887 25.6181
Pd 20.0041 15.828 16.3182
Au 7.17129 17.2509 9.52261
Pd 9.65768 20.3531 23.2083
Au 17.3432 26.8313 15.008
Pd 25.6094 15.595 12.2846
Au 28.1175 12.3456 15.7776
Pd 25.3154 16.7204 14.966
Au 18.9733 22.9377 14.4147
Pd 17.4419 4.30208 8.59337
Au 21.1601 3.23581 16.0393
Pd 15.3028 20.6494 9.64901
Au 20.4628 16.8021 23.9087
Pd 10.9572 5.82488 6.47227
Pd 10.9077 14.5773 16.5615
Au 15.322 3.31529 16.3919
Au 14.9513 16.3805 18.8819
Pd 14.0548 18.3196 23.9663
Au 12.4272 24.6663 10.6958
Pd 17.808 23.9332 7.23455
Au 16.5992 6.89482 19.6259
Pd 7.65775 19.4264 21.1564
Au 25.08 22.6531 11.1574
Pd 14.0754 12.7417 15.6496
Au 20.2832 21.7447 22.9623
Pd 8.84237 6.99436 7.92697
Au 16.5703 21.6044 7.12285
Pd 20.4044 12.8088 5.07668
Au 4.94018 18.5203 10.7577
Pd 10.0592 10.7892 10.8465
Au 24.2923 18.4814 17.0384
Pd 13.6011 14.4672 5.9881
Au 11.8141 22.1988 9.63246
Pd 23.1137 11.9002 14.4459
Au 13.3912 3.19164 18.2317
Pd 20.6386 18.37 6.25853
Pd 14.7 23.2231 16.19
Pd 9.28028 19.1704 18.8868
Pd 13.4505 15.4952 16.5904
Pd 12.1164 5.01954 16.6977
Pd 26.2726 10.4231 12.1322
Pd 15.0141 13.6524 2.9343
Pd 19.0055 17.5044 21.4788
Pd 9.74407 21.355 20.6314
Pd 18.3071 20.4564 18.7376
Pd 7.23767 21.3738 19.4598
Pd 11.2359 25.4818 12.8685
Pd 13.6747 17.0277 6.70939
Au 24.4834 10.4735 20.786
Au 7.00193 14.5511 14.0006
Pd 21.1895 6.83982 15.563
Au 4.66643 22.0042 19.2144
Pd 16.2072 6.27789 10.792
Au 7.92908 6.06596 19.8962
Pd 5.97247 21.4816 10.91
Au 9.54365 4.40392 8.22762
Pd 17.5838 15.4136 17.6823
Au 3.40983 15.5529 19.2996
Pd 11.5062 13.6562 20.5935
Au 27.6322 10.1188 17.2917
Pd 14.1346 5.4094 12.2259
Au 19.4021 13.7883 14.3412
Pd 6.17691 16.2588 11.7664
Au 22.6822 24.7279 15.8254
Pd 13.5794 10.7719 21.7641
Au 15.2752 8.50793 17.6824
Pd 11.137 13.5364 24.2216
Au 20.9289 15.5062 6.04126
Pd 21.5928 17.4326 20.844
Pd 8.71148 17.8701 23.121
Au 18.7612 4.88274 10.8005
Au 7.70742 26.017 21.9114
Pd 22.3524 9.02719 6.5145
Au 12.4468 24.2897 15.0425
Pd 13.1289 10.4972 16.9931
Au 9.9504 15.9318 24.491
Pd 18.7014 10.5597 17.5723
Au 16.1766 19.2402 17.4675
Pd 9.70158 8.05934 13.2743
Au 26.5118 7.73909 16.3698
Pd 14.6933 18.9339 19.6219
Au 11.1224 16.2522 21.5951
Pd 25.8746 12.0116 14.3776
Au 9.05754 27.5337 17.44
Pd 14.4408 9.39098 4.68524
Au 14.9649 26.1439 24.405
Pd 11.6858 14.6355 7.98266
Au 13.6133 16.6869 26.2928
Pd 23.1535 12.4545 19.6314
Au 7.3639 7.18665 12.4183
Pd 8.67373 26.0644 12.0928
Pd 13.3275 25.4649 6.66772
Au 8.55771 16.4077 26.5925
Au 15.7381 13.9775 22.431
Pd 21.2389 6.5388 18.3203
Au 21.6687 9.98321 20.6543
Pd 18.1088 7.19773 9.16604
Au 22.8403 11.1984 22.9088
Pd 6.22543 13.6468 11.3392
Au 8.08028 10.3731 22.4149
Pd 24.9003 16.4287 8.33949
Au 24.8234 18.3095 12.8206
Pd 18.3815 14.7011 5.82501
Au 14.9907 4.10901 22.7547
Pd 8.76062 16.2748 7.15496
Au 7.63278 22.881 15.432
Pd 6.9741 7.67032 9.6229
Au 13.3676 3.06251 10.9436
Pd 16.1542 6.59415 15.7973
Au 11.4053 25.2703 22.202
Pd 12.9207 24.4608 24.2986
Au 21.8659 17.0089 4.16431
Pd 8.26579 21.8753 12.3768
Pd 13.7942 15.5803 21.3321
Au 7.59529 14.6317 9.17944
Au 22.3229 9.51083 15.3816
Pd 11.0852 15.4859 12.1989
Au 2.25066 16.204 14.0381
Pd 11.6083 9.1171 15.0419
Au 4.56847 19.4201 19.9881
Pd 9.17228 14.6236 22.3013
Au 12.0129 17.1281 4.56621
Pd 14.0528 13.9895 25.1057
Au 26.8626 13.1439 12.1211
Pd 12.6622 27.1402 23.6695
Au 15.6449 23.4961 24.2278
Pd 20.6688 14.2753 10.3466
Au 7.96494 25.2913 16.4685
Pd 18.5416 7.17011 12.0139
Au 10.8967 20.5945 25.6116
Pd 12.4456 19.3583 6.03854
Au 13.1861 19.4148 26.1716
Pd 11.249 25.0236 8.39449
Au 23.0097 4.98331 17.0568
Pd 17.7698 3.09946 12.6723
Pd 11.4471 6.33949 14.4377
Au 23.3992 18.3648 5.93209
Au 25.7286 8.06562 20.9103
Pd 9.01451 7.89529 21.8544
Au 3.75213 20.0956 17.487
Pd 17.3377 10.9334 8.91612
Au 18.2177 11.7044 6.2824
Pd 11.1151 21.361 18.3463
Au 16.3242 17.0597 12.6723
Pd 14.6104 10.0811 12.1302
Au 18.5533 24.9022 20.7427
Pd 13.8963 23.7661 8.62347
Au 9.7112 18.7056 5.77975
Pd 15.5449 10.9496 6.55753
Au 13.5381 5.41954 9.66874
Pd 13.8826 24.8676 12.9504
Au 8.81862 18.9679 25.5877
Pd 8.01396 7.36243 17.5743
Au 26.5366 17.7796 20.0156
Pd 13.0821 18.1529 21.5503
Au 6.49852 23.7306 20.6828
Pd 12.0574 4.04422 13.1514
Pd 22.5242 19.4369 10.1932
Pd 9.29445 24.0052 13.7252
Pd 14.5943 10.8883 19.1275
Pd 24.1138 10.2486 10.344
Pd 12.5478 23.673 17.8022
Pd 14.5833 5.66861 17.7721
Pd 23.1625 21.0799 17.3839
Pd 15.1521 19.9198 12.9414
Pd 15.9962 11.2324 16.8615
Pd 16.1223 8.03994 13.2217
Pd 20.5616 7.14516 10.0382
Pd 13.5462 5.29435 6.72097
Au 16.6103 21.8436 17.2895
Au 15.7253 25.5906 7.90857
Pd 13.0216 20.3354 11.2213
Au 11.7843 9.1466 9.37481
Pd 13.3671 18.9954 8.63833
Au 12.6796 16.6188 9.7497
Pd 16.9756 18.8568 14.7274
Au 22.9066 21.267 12.2195
Pd 19.1581 9.32425 7.78934
Au 14.4751 16.1313 3.955
Pd 24.0267 23.8872 13.1608
Au 3.36248 16.362 11.5461
Pd 13.8688 21.0885 18.095
Au 18.2446 19.8552 5.64851
Pd 21.0198 20.802 14.0943
Au 12.1656 27.9324 21.2394
Pd 5.05907 23.5208 15.6571
Au 10.447 17.0278 17.4347
Pd 9.94091 18.7949 14.0019
Au 23.7438 15.4967 16.8269
Pd 23.7987 14.5245 10.5663
Pd 18.2671 12.014 25.5573
Au 7.23086 11.7412 7.18559
Au 25.105 20.0119 10.777
Pd 24.5361 5.8114 12.5522
Au 12.0632 23.1208 6.62541
Pd 18.3215 7.62373 17.4849
Au 10.7265 8.55569 6.87887
Pd 11.9475 11.1064 19.6516
Au 20.9815 23.3062 20.7575
Pd 22.0493 23.7327 18.2298
Au 6.67822 16.4799 15.8464
Pd 20.7149 11.6489 18.8747
Au 18.4994 23.7151 23.1687
Pd 20.9461 9.03959 17.7846
Au 6.45047 7.76923 15.0894
Pd 19.685 15.9963 19.2521
Au 20.8065 3.75154 18.5902
Pd 16.2655 23.3045 21.6676
Au 9.91698 12.3937 18.1407
Pd 22.6211 19.3265 19.3272
Au 7.82693 10.1973 17.9506
Pd 14.3566 13.2337 20.2099
Pd 21.0764 11.2365 7.18141
Au 16.9892 15.0427 20.3078
Au 2.98281 18.757 12.8761
Pd 22.4555 23.57 10.9313
Au 16.1076 4.53133 6.23491
Pd 17.4714 19.5984 21.182
Au 3.70826 11.4881 15.6151
Pd 22.5397 20.9665 21.4916
Au 28.4898 14.7955 17.0207
Pd 7.92198 22.2338 22.3806
Au 8.33529 11.8594 15.6508
Pd 15.8075 17.286 21.5281
Au 13.277 7.48549 16.3032
Pd 19.9965 18.5692 18.9257
Au 27.52 7.76377 18.8888
Pd 5.68168 8.5753 17.7193
Au 19.2687 9.46249 10.7306
Pd 18.9727 10.9336 20.8658
Au 4.32875 14.4075 13.2108
Pd 17.0816 15.4323 3.60376
Au 8.51875 5.5804 10.3364
Pd 4.80154 17.138 13.8174
Pd 13.7863 2.6578 20.8193
Au 20.3878 25.5406 18.9967
Au 10.6666 26.6951 10.4393
Pd 27.3108 14.7334 14.3574
Au 12.6309 7.56881 5.30692
Pd 17.7629 6.6298 6.53152
Au 3.2519 11.9405 13.0074
Pd 17.0895 4.66371 21.1642
Au 14.8227 3.44007 8.36545
Pd 14.5637 18.1566 10.9844
Au 11.2742 3.40246 19.8599
Pd 13.351 21.5298 4.87393
Au 15.2891 13.906 17.8084
Pd 23.5536 19.6741 14.7905
Au 6.86055 16.0964 22.5206
Pd 23.9029 13.5048 21.9739
Au 28.1948 15.3772 11.6736
Pd 19.3185 12.3972 12.0387
Au 7.40113 17.842 13.5462
Pd 10.9659 22.6575 22.9475
Au 7.09178 24.0142 11.3722
Pd 15.9472 11.4495 14.0537
Pd 17.0701 9.13286 15.6353
Au 9.8648 27.2331 23.0045
Au 21.6926 9.4204 9.07156
Pd 11.0768 6.83159 23.2174
Au 14.1618 27.8999 19.2893
Pd 23.1499 7.99428 19.5966
Au 11.7935 16.9848 14.9603
Pd 14.891 25.8313 15.3586
Au 22.1562 20.2758 7.44668
Pd 13.0655 27.2037 11.6317
Au 16.4756 23.1591 9.34559
Pd 13.1729 13.2713 22.6315
Au 9.66942 5.05024 18.0723
Pd 3.61566 13.4954 10.8267
Au 12.8698 27.3242 14.3335
Pd 14.627 20.2707 15.6018
Au 15.7901 27.5112 10.1309
Pd 24.5534 19.107 8.34401
Au 22.5869 12.4241 9.41021
Pd 19.849 4.66682 13.9302
Au 10.9106 28.5427 15.7913
Pd 15.0078 20.1391 22.1172
