665
Atoms. Timestep: 20288
Pd 9.13768 8.61593 8.58759
Pd 6.11262 8.85086 12.2721
Pd 3.22955 8.88994 15.9786
Pd 3.509 9.92743 20.4119
Pd 9.58333 8.7498 23.9423
Au 10.1239 9.72424 6.23739
Au 7.08488 9.94666 9.93862
Pd 8.12802 11.0752 7.63621
Au 4.12559 10.1636 13.7017
Pd 5.15466 11.3569 11.4113
Au 3.31597 10.7551 17.8505
Pd 2.66485 11.6114 15.4296
Au 5.37816 8.7953 21.8883
Pd 3.91174 12.5115 19.8814
Au 4.22038 11.4158 22.5492
Pd 4.78468 13.9959 21.9446
Au 9.14112 12.1942 5.28799
Au 6.12716 12.4461 9.02907
Pd 7.18858 13.5583 6.71566
Au 3.40421 12.749 13.0013
Pd 4.34892 13.876 10.5896
Au 3.40077 13.4933 17.4274
Pd 2.94219 14.5205 14.9952
Au 5.21002 16.705 21.6138
Pd 4.30108 15.1994 19.4865
Au 5.09165 12.8562 24.6482
Pd 5.78387 15.3889 23.9715
Au 10.0025 16.5802 3.24961
Au 5.30863 14.9718 8.16872
Pd 6.36043 16.054 5.83955
Au 3.73087 15.6032 12.5893
Pd 4.74991 16.6896 10.2193
Au 3.70939 16.2966 17.0675
Pd 3.35011 17.4159 14.6271
Au 5.64826 19.4394 21.3442
Pd 4.695 17.934 19.1784
Au 6.84635 16.6741 26.0466
Pd 6.20921 18.086 23.7633
Au 8.2242 14.671 4.3707
Au 5.76981 17.7675 7.84477
Pd 6.93038 18.8222 5.58595
Au 4.22626 18.4611 12.2458
Pd 5.32424 19.5045 9.90591
Au 4.13807 19.0943 16.7545
Pd 3.85852 20.2609 14.3033
Au 5.13593 20.6906 18.8924
Pd 4.75571 21.802 16.4241
Au 7.25028 19.4365 25.8252
Pd 6.70188 20.7927 23.4144
Au 8.75395 20.8947 6.06662
Au 5.98292 22.2797 9.66488
Pd 7.42649 17.1225 3.58762
Au 5.56473 23.8796 11.7571
Pd 7.5017 22.1235 11.9551
Au 4.498 22.9704 14.0161
Pd 9.36428 21.0227 16.6921
Au 6.25938 22.1417 20.9429
Pd 7.82655 21.6185 18.8385
Au 8.66284 21.6399 24.9558
Pd 8.36292 22.9611 22.4536
Pd 11.2103 7.30477 7.2587
Pd 8.15897 7.50296 10.9096
Pd 10.206 6.19193 9.57467
Pd 5.16571 7.67709 14.5168
Pd 7.21874 6.3901 13.1664
Pd 5.21012 7.25854 17.1614
Pd 7.29464 6.183 15.8243
Pd 5.40251 6.91671 19.9584
Pd 7.46237 6.01915 18.5272
Pd 11.8399 7.6145 24.6633
Pd 7.77024 5.75665 21.1566
Pd 11.8125 11.6022 5.00899
Au 12.7948 9.12329 5.89948
Au 11.6986 9.62777 8.46729
Pd 9.66104 10.9508 9.91189
Au 10.6724 8.52984 10.8789
Pd 13.4183 11.4597 7.22019
Au 8.6277 9.83687 12.2607
Pd 6.63797 11.1959 13.686
Au 7.61788 8.65378 14.5894
Pd 11.1996 10.8562 12.2963
Au 5.55487 9.9355 16.0237
Pd 5.75019 11.9214 17.8322
Au 7.65137 8.42984 17.3417
Pd 8.04294 10.9845 16.0424
Au 5.42711 9.29703 18.7615
Pd 6.0606 11.0895 20.6667
Au 7.63025 8.25393 20.211
Pd 7.98337 10.6359 18.8346
Au 7.97926 9.9926 22.2348
Pd 8.5269 11.2744 24.6471
Au 6.06369 10.2548 24.1025
Pd 10.4211 11.1057 22.7041
Pd 10.8827 14.0936 4.09879
Au 13.5192 13.4857 3.76052
Au 10.7031 12.0446 7.51534
Pd 8.7186 13.4039 8.98003
Au 12.2763 11.9371 9.86159
Pd 12.4692 13.9166 6.32304
Au 7.677 12.3134 11.3187
Pd 5.8498 13.774 12.8511
Au 9.20737 12.2084 13.6917
Pd 10.2839 13.2955 11.3154
Au 4.99475 12.6835 15.2961
Pd 5.91724 14.6082 17.3389
Au 8.32733 13.0771 17.6945
Pd 7.43816 13.7102 15.1862
Au 6.50032 13.5765 19.8221
Pd 7.45801 15.0014 21.867
Au 8.70612 12.2692 20.9217
Pd 9.25685 14.5991 19.7691
Au 6.87863 12.5584 22.8762
Pd 7.58904 13.9033 25.2636
Au 10.5887 12.7143 25.5502
Pd 9.3805 13.6399 23.3223
Pd 11.9098 18.5693 3.79249
Au 12.6337 16.0209 2.99216
Au 9.7693 14.4956 6.59955
Pd 7.84877 15.9085 8.07372
Au 11.349 14.377 8.91431
Pd 11.5582 16.4142 5.47331
Au 6.81601 14.8369 10.4224
Pd 6.26615 16.6163 12.5041
Au 8.38668 14.7488 12.7547
Pd 9.41447 15.7801 10.3772
Au 5.3385 15.5999 14.8913
Pd 6.25822 17.3373 17.0162
Au 8.56169 15.7115 17.308
Pd 7.8598 16.5845 14.8345
Au 6.87571 16.2451 19.4595
Pd 7.82716 17.6993 21.6244
Au 10.1949 15.901 22.0032
Pd 9.54005 17.2725 19.5224
Au 8.40225 16.3179 24.0041
Pd 9.23245 17.724 26.2387
Au 9.9347 15.1879 25.8925
Pd 11.1035 17.1114 24.3532
Pd 9.25177 19.1029 4.08475
Au 11.1737 21.0988 4.65923
Au 8.90642 16.9822 5.73425
Pd 8.42355 18.7063 7.80758
Au 10.467 16.8508 8.01763
Pd 10.7898 18.9891 6.29707
Au 7.31347 17.642 10.1328
Pd 6.83207 19.3844 12.2088
Au 8.90557 17.5382 12.4628
Pd 9.99186 18.5721 10.1074
Au 5.799 18.446 14.5775
Pd 6.73964 20.0493 16.7411
Au 8.89535 18.3681 17.0494
Pd 8.3967 19.3564 14.5621
Au 7.27235 18.9601 19.2122
Pd 8.34294 20.4373 21.3601
Au 10.4886 18.6582 21.7578
Pd 9.95052 19.9896 19.2364
Au 8.83111 19.0664 23.7974
Pd 10.7057 19.7595 25.5441
Au 15.5166 19.4395 26.466
Pd 12.4087 19.4704 23.5174
Pd 8.31663 22.5983 8.18404
Au 10.6995 22.8993 6.67582
Au 6.44444 20.5536 7.60379
Pd 4.85799 21.2361 11.9576
Au 10.3167 20.7485 8.35789
Pd 10.2499 24.5349 8.80932
Au 7.94263 20.4334 9.8683
Pd 6.99271 23.9965 14.0004
Au 9.51333 20.2702 12.1942
Pd 9.85837 22.4395 10.4833
Au 6.39139 21.2042 14.272
Pd 9.00532 22.0524 14.2367
Au 11.4839 19.4556 17.0557
Pd 11.0632 20.1691 14.4999
Au 10.0658 22.4641 20.3987
Pd 7.97637 24.1286 19.8857
Au 10.4789 21.3043 23.0306
Pd 7.32104 22.7467 16.3418
Au 13.1127 20.708 26.1135
Pd 10.6518 23.8918 23.6109
Au 11.0654 22.3637 25.7051
Pd 10.1147 25.0096 21.2583
Pd 12.3217 4.96069 8.27362
Pd 9.31339 5.09705 11.9033
Pd 11.3836 3.88827 10.579
Pd 9.40821 4.98471 14.619
Pd 11.4795 3.80548 13.2744
Pd 9.61752 4.91081 17.3997
Pd 11.6609 3.77159 15.9572
Pd 10.1328 4.96259 20.227
Pd 11.8069 3.68823 18.5627
Pd 7.41364 7.53059 23.0189
Pd 9.91305 7.31005 21.5954
Pd 14.4822 11.0135 4.68976
Au 13.8982 6.7373 6.94077
Au 12.7461 7.24828 9.48918
Pd 13.2531 9.54421 10.8553
Au 11.7689 6.15401 11.9088
Pd 14.4092 9.06291 8.18025
Au 9.69347 7.37436 13.2624
Pd 10.1507 9.71321 14.6869
Au 11.8908 6.12743 14.7382
Pd 12.2295 8.50087 13.33
Au 9.79148 7.27294 16.071
Pd 10.2072 9.63989 17.4853
Au 12.0507 6.12392 17.612
Pd 12.3393 8.47451 16.1849
Au 9.8778 7.25641 18.869
Pd 10.062 9.64549 20.3492
Au 12.4013 6.4265 20.4362
Pd 12.4161 8.58995 19.0074
Au 9.52943 6.07165 23.7953
Pd 15.7901 11.4531 25.3726
Au 11.3999 10.2905 25.0602
Pd 11.9812 8.81041 22.3216
Pd 15.2813 15.4335 2.76996
Au 16.1984 12.9085 3.46522
Au 15.1264 13.3087 6.00173
Pd 14.0332 13.7677 8.62097
Au 14.9853 11.3229 9.5457
Pd 16.8644 15.2253 4.92868
Au 13.7808 11.8274 12.247
Pd 11.7876 13.207 13.6879
Au 12.6808 10.8319 14.7688
Pd 15.5743 13.5973 10.936
Au 10.576 12.0571 16.0915
Pd 10.9818 14.2565 17.589
Au 12.7774 10.8671 17.6149
Pd 13.1309 13.1763 16.1879
Au 10.5317 11.9599 18.9307
Pd 11.2891 13.3011 21.2931
Au 12.4892 10.8318 20.4886
Pd 13.0289 13.1916 19.0699
Au 12.9607 11.7323 23.0466
Pd 13.233 12.4894 25.5719
Au 17.8424 13.1381 26.0426
Pd 15.0188 13.305 23.6376
Pd 14.573 18.0138 3.51983
Au 17.2267 17.425 3.21084
Au 14.1947 15.8313 5.18983
Pd 13.1259 16.2566 7.75307
Au 15.7678 15.6359 7.47825
Pd 16.1589 17.8112 5.74086
Au 12.9032 14.2619 11.2561
Pd 10.9803 15.6827 12.7147
Au 14.3865 14.1036 13.6515
Pd 14.6825 16.0847 10.0584
Au 9.9374 14.6779 15.1124
Pd 11.216 16.8527 17.3466
Au 13.5589 15.5086 17.592
Pd 12.4838 15.5926 15.0872
Au 11.8517 15.6357 19.8387
Pd 12.7435 16.9997 22.2024
Au 13.7184 14.5183 21.6191
Pd 14.3066 16.9163 19.8886
Au 11.9547 14.3623 23.8001
Pd 15.2499 14.1097 26.2493
Au 18.074 15.7914 26.8474
Pd 14.2068 15.8234 24.1572
Pd 13.8639 20.5793 4.39259
Au 16.5283 19.9907 4.11167
Au 13.4816 18.4215 6.01084
Pd 12.3879 18.8448 8.59837
Au 15.069 18.2253 8.32988
Pd 15.4472 20.3669 6.65289
Au 12.0407 16.727 10.3302
Pd 11.58 18.4203 12.4495
Au 13.6264 16.5781 12.6799
Pd 14.001 18.6772 10.9517
Au 10.438 17.4833 14.8303
Pd 11.955 21.7984 18.3503
Au 13.8403 18.1817 17.5188
Pd 13.7654 22.9149 14.1707
Au 12.1363 18.4158 19.6326
Pd 15.711 17.9863 23.9312
Au 13.316 18.0131 25.6343
Pd 12.3652 23.4191 21.5337
Au 12.6611 15.2631 26.2151
Pd 17.446 20.0401 24.6224
Au 15.684 16.7812 26.375
Pd 14.2645 23.0337 19.38
Pd 12.6695 24.771 7.42581
Au 15.8112 22.5056 5.07303
Au 12.7407 20.9742 6.90543
Pd 12.2507 22.6666 9.03148
Au 14.3674 20.7758 9.28687
Pd 16.3363 22.75 9.96032
Au 11.9238 20.5454 10.729
Pd 9.80692 26.173 10.9027
Au 11.7807 24.3856 11.1397
Pd 13.8633 22.4694 11.4126
Au 13.1265 18.2646 14.8474
Pd 7.67499 25.1549 17.342
Au 9.69316 23.4564 17.8231
Pd 9.33107 24.4876 15.3156
Au 11.9101 24.4675 19.1333
Pd 5.84913 23.3119 18.4515
Au 12.2846 25.8203 22.6796
Pd 9.68395 26.9027 16.2908
Au 14.7973 20.4084 24.0964
Pd 14.5086 24.441 23.0681
Au 18.4383 22.672 22.1641
Pd 14.1534 27.7975 19.2692
Pd 15.0921 4.67608 8.19427
Pd 13.5861 2.72769 11.9587
Pd 15.8295 3.19197 10.4129
Pd 13.7854 2.69338 14.7066
Pd 16.0272 3.06112 13.1603
Pd 14.0017 2.68034 17.4529
Pd 16.221 3.03514 15.9492
Pd 12.4777 3.81774 21.0293
Pd 16.4079 3.08292 18.7244
Pd 13.8569 9.68617 24.5982
Pd 14.6181 5.04769 21.8337
Pd 15.4905 8.59532 5.67938
Au 15.4988 6.96045 9.52678
Au 13.8241 4.91166 10.5142
Pd 14.2876 7.29082 11.9861
Au 16.2805 5.41641 11.775
Pd 15.9802 9.30441 11.0724
Au 13.9812 4.9541 13.3623
Pd 14.441 7.29481 14.8587
Au 16.4576 5.33915 14.6074
Pd 16.7457 7.74035 13.26
Au 14.1399 4.95449 16.2084
Pd 14.5829 7.25539 17.768
Au 16.6269 5.3356 17.4389
Pd 16.9168 7.69133 16.1011
Au 14.2896 4.8126 19.1119
Pd 14.9614 7.30899 20.5281
Au 16.9056 5.26286 20.2566
Pd 17.1549 7.66981 18.8939
Au 11.915 5.68044 22.8608
Pd 14.1085 7.28448 23.1964
Au 16.7606 6.62631 22.6051
Pd 17.0749 9.00695 21.2953
Pd 17.9327 14.8639 2.4808
Au 17.1658 10.4684 4.36441
Au 16.1316 10.8465 6.89509
Pd 16.7151 13.1202 8.29847
Au 16.4883 11.6857 12.6148
Pd 17.8358 12.697 5.71629
Au 14.7571 9.61188 13.4987
Pd 15.2328 11.9308 15.0538
Au 17.2244 10.0507 14.7671
Pd 17.0078 14.0332 14.1474
Au 14.8952 9.60148 16.4027
Pd 15.3556 12.0069 17.9841
Au 17.402 10.0547 17.6262
Pd 17.687 12.3681 16.2534
Au 15.041 9.67859 19.2516
Pd 14.8107 12.1108 20.8464
Au 17.3321 11.4402 20.0419
Pd 17.6437 13.7325 18.6307
Au 14.5385 9.63676 21.9957
Pd 18.6743 13.0608 23.5098
Au 16.3194 8.9022 24.0617
Pd 16.5746 11.2959 22.8196
Pd 19.1772 19.3005 3.94775
Au 19.9098 16.7725 2.98676
Au 18.8544 17.1595 5.48824
Pd 17.7547 17.5549 8.06894
Au 18.4652 14.973 7.18214
Pd 19.7033 21.0033 8.20665
Au 17.3411 15.3961 9.75314
Pd 16.2475 15.8773 12.3473
Au 17.7318 16.9188 14.413
Pd 18.2248 19.1209 12.5142
Au 15.6727 14.2234 16.574
Pd 16.249 16.7655 17.7003
Au 18.2322 15.0982 16.3321
Pd 15.733 18.9236 15.947
Au 15.3587 14.5595 19.4291
Pd 15.8824 16.2716 21.9133
Au 16.8291 13.7625 21.5624
Pd 17.8249 16.1473 19.8319
Au 16.8729 15.0799 24.3977
Pd 18.1851 17.3737 24.633
Au 20.442 17.6542 25.9962
Pd 21.054 14.7199 22.7734
Pd 14.6878 22.8584 7.66436
Au 20.7832 20.4941 5.80187
Au 18.1136 19.684 6.44287
Pd 17.0423 20.1659 8.95459
Au 18.7048 21.3212 10.7244
Pd 17.3463 22.3342 7.34227
Au 16.654 18.0169 10.6245
Pd 15.6343 18.4816 13.2684
Au 14.3667 20.3021 19.1337
Pd 18.1791 21.6169 13.3914
Au 15.1607 16.377 15.0972
Pd 11.3553 22.6011 15.6783
Au 14.4348 19.0402 21.6923
Pd 16.1977 23.7342 15.473
Au 12.2556 20.7798 20.9706
Pd 14.0012 25.4389 20.6134
Au 20.4329 17.4233 23.2155
Pd 11.7299 24.7841 13.9067
Au 18.6072 22.5681 24.8972
Pd 17.9936 18.5613 26.9001
Au 19.9408 15.0584 25.1319
Pd 12.9607 22.3316 23.875
Pd 14.5794 26.5348 8.22497
Au 15.1074 24.9037 6.15157
Au 13.1599 23.1057 5.33015
Pd 16.0902 23.323 12.7672
Au 16.036 20.6675 11.6559
Pd 12.0564 26.9193 12.2437
Au 13.5486 20.3649 13.1118
Pd 7.85285 24.2631 10.2849
Au 12.1585 26.4433 9.48861
Pd 14.3447 27.1256 10.866
Au 11.4148 22.2854 12.8451
Pd 12.0438 27.2791 14.9764
Au 9.30163 24.1941 12.5614
Pd 18.7434 26.2104 12.4105
Au 9.74341 26.6157 13.6305
Pd 9.77893 26.0125 18.7596
Au 11.9763 27.4541 17.7321
Pd 11.8214 26.9074 20.3102
Au 15.9265 26.5584 22.0005
Pd 16.2189 22.5388 23.8215
Au 19.8344 20.2182 25.5942
Pd 14.1006 25.4464 15.2019
Pd 17.5314 5.10006 9.32464
Pd 18.247 3.61344 11.5575
Pd 19.9606 5.54182 10.4725
Pd 18.4749 3.484 14.3166
Pd 20.6897 4.05354 12.6802
Pd 18.662 3.46339 17.1063
Pd 20.9367 3.93127 15.4309
Pd 18.9512 3.55961 19.8152
Pd 21.1655 3.96297 18.1643
Pd 18.9032 5.00342 22.1193
Pd 21.089 5.27951 20.5237
Pd 17.1244 9.01065 8.63408
Au 16.6941 6.67768 7.15638
Au 17.978 7.40925 10.7362
Pd 18.4541 9.73803 12.2607
Au 20.4622 7.85497 11.8751
Pd 19.6486 9.41749 9.75348
Au 18.7352 5.8555 12.9489
Pd 19.2119 8.18672 14.4212
Au 21.2058 6.29878 14.0621
Pd 20.947 10.1913 13.3868
Au 18.9403 5.77394 15.7613
Pd 19.4482 8.16212 17.2212
Au 21.4667 6.24971 16.8647
Pd 21.6979 8.64465 15.5154
Au 19.1965 5.79653 18.5365
Pd 19.3405 9.58384 19.5772
Au 21.3452 7.63824 19.257
Pd 21.5643 10.0526 17.8991
Au 19.1062 7.22759 20.8655
Pd 18.8546 8.28474 23.3191
Au 21.0082 6.72607 22.816
Pd 21.2152 9.08801 21.6189
Pd 18.8827 12.3671 3.23953
Au 18.7881 11.0433 7.67291
Au 17.6538 11.3729 10.1617
Pd 18.21 13.7426 11.702
Au 20.1612 11.7747 11.2734
Pd 19.356 13.3867 9.20059
Au 18.9701 12.1165 13.7821
Pd 19.5942 14.9244 13.7979
Au 21.5765 12.9808 13.3766
Pd 20.8129 14.5743 11.2554
Au 19.7085 10.5368 15.9177
Pd 20.3234 13.3224 15.9369
Au 22.3351 11.3783 15.5072
Pd 22.9261 14.1253 15.4898
Au 19.6072 11.9977 18.2999
Pd 19.4317 13.3893 20.7976
Au 21.4187 11.4725 20.2961
Pd 22.2122 12.7999 17.8618
Au 19.1211 10.7451 22.088
Pd 18.341 10.6657 24.7908
Au 20.8428 9.80308 24.2521
Pd 21.2422 12.1491 22.9155
Pd 22.3574 21.5799 7.77463
Au 20.552 14.2584 2.21751
Au 19.5452 14.5909 4.63518
Pd 19.3101 18.777 9.97157
Au 19.9707 16.1826 9.1833
Pd 20.3962 18.3783 7.46018
Au 18.8519 16.5574 11.7441
Pd 20.2435 17.8234 13.8091
Au 22.1642 15.7773 13.3364
Pd 21.4138 17.3909 11.2193
Au 20.8672 16.0981 15.9256
Pd 17.4039 19.7233 17.8734
Au 16.413 18.5471 19.9422
Pd 21.7521 18.7128 15.865
Au 20.0861 14.9351 18.3262
Pd 18.5891 15.5478 22.4453
Au 20.4138 16.3997 20.5977
Pd 18.8419 17.4989 17.2301
Au 21.9783 14.2008 20.1651
Pd 22.6472 13.9519 24.7656
Au 20.4616 12.3343 25.4607
Pd 19.1672 18.6956 19.7631
Pd 18.4533 21.7681 4.98332
Au 23.9449 22.6904 9.68573
Au 21.8918 19.5743 9.45441
Pd 15.8567 21.1281 14.4619
Au 20.7993 20.0592 12.0187
Pd 21.2816 22.2136 10.1572
Au 13.5132 20.7661 15.954
Pd 13.7079 23.3062 16.8112
Au 22.8145 18.6267 13.2791
Pd 20.3986 20.6321 14.6516
Au 18.2843 21.932 16.2446
Pd 15.7227 21.6054 17.1746
Au 19.9994 20.0104 17.4136
Pd 24.3323 19.8524 15.1209
Au 22.213 20.1723 19.0474
Pd 11.6662 25.1196 16.5827
Au 19.8758 21.195 20.2951
Pd 16.8896 21.6427 19.6937
Au 22.546 16.6905 24.5952
Pd 19.5522 20.0924 22.7943
Au 22.3657 21.1863 21.8053
Pd 17.9583 18.053 22.0736
Pd 18.3439 23.7921 11.4969
Au 21.24 25.6592 16.2458
Au 20.6933 24.7978 10.8888
Pd 18.5087 25.5985 21.2601
Au 16.6436 24.8287 8.35702
Pd 20.5245 22.7232 12.7096
Au 14.3327 27.5774 13.5898
Pd 14.182 24.5311 9.77849
Au 18.8685 24.4513 16.8515
Pd 14.1397 25.5977 17.9225
Au 16.445 25.9668 13.7926
Pd 14.0849 25.0734 12.5038
Au 28.2991 18.7304 14.7567
Pd 22.9363 23.7673 17.1899
Au 18.9008 26.5835 15.1676
Pd 14.3093 27.7819 16.4252
Au 14.6659 21.8946 21.7079
Pd 16.4357 24.0116 18.1354
Au 19.8289 24.5908 23.4809
Pd 16.3097 24.0066 21.0342
Au 20.8866 23.6105 21.2424
Pd 18.7743 26.3599 18.5199
Pd 19.1365 7.14281 8.29479
Pd 22.4303 5.99071 11.5803
Pd 20.747 9.14651 7.27393
Pd 23.1355 4.4846 13.7677
Pd 24.8606 6.45691 12.7226
Pd 23.4164 4.42732 16.4948
Pd 26.8039 11.7345 17.1275
Pd 23.2939 5.73343 18.8549
Pd 25.5343 4.94092 14.8458
Pd 23.1783 7.11495 21.1996
Pd 25.3 7.63411 19.4697
Pd 18.2054 8.7933 6.20859
Au 19.8725 10.7291 5.17444
Au 21.6328 7.50924 9.39687
Pd 22.1572 9.8673 10.8861
Au 24.1364 8.01005 10.535
Pd 23.205 9.53488 8.42917
Au 22.9696 8.32279 12.997
Pd 23.5954 11.0522 12.9944
Au 24.8018 10.7083 10.5486
Pd 23.8973 12.3221 8.35624
Au 23.6813 6.75369 15.1572
Pd 26.8495 10.3316 14.7984
Au 25.4665 6.23411 17.1584
Pd 26.1626 11.9081 12.6465
Au 23.5547 8.13691 17.5166
Pd 24.3388 9.47447 15.1369
Au 25.6098 9.13827 12.6473
Pd 24.8263 13.6163 17.4926
Au 23.4053 9.5247 19.8972
Pd 23.0638 8.54703 23.4795
Au 25.2321 8.95714 21.8012
Pd 26.2311 7.58112 14.8223
Pd 20.4832 13.0192 6.67663
Au 21.5239 12.6973 4.18234
Au 21.3246 11.4424 8.75874
Pd 21.9656 14.2224 8.71374
Au 23.1018 13.8348 6.18566
Pd 22.0849 15.4225 4.14543
Au 22.8075 12.6203 10.8486
Pd 24.1841 13.8114 12.9594
Au 22.4498 11.1279 6.29369
Pd 25.3908 13.4216 10.4643
Au 24.9555 12.2246 15.1134
Pd 22.7979 15.5235 17.8734
Au 27.4869 13.0809 14.7804
Pd 25.5228 14.9416 15.1162
Au 24.249 10.8767 17.5032
Pd 24.0857 12.2549 19.8577
Au 26.225 8.94784 17.1492
Pd 26.6403 13.1016 19.4695
Au 23.4814 10.8638 22.2881
Pd 22.9677 11.2804 24.8342
Au 25.1005 12.789 24.1133
Pd 26.0393 10.3321 19.4766
Pd 22.9808 19.0791 6.95407
Au 21.4919 17.9979 4.92147
Au 21.0903 15.7991 6.62704
Pd 22.5535 16.9603 8.6687
Au 24.5875 14.9915 8.27408
Pd 23.607 16.5431 6.1878
Au 23.4282 15.3674 10.7843
Pd 26.7334 14.634 12.6412
Au 28.0187 15.8806 14.8024
Pd 25.6186 10.413 8.15127
Au 23.5188 16.8108 15.4678
Pd 25.3257 16.3426 17.5135
Au 27.3969 14.4934 17.1306
Pd 25.9623 17.7031 15.0766
Au 24.6234 14.9892 19.8925
Pd 22.9325 16.2645 21.8764
Au 26.3305 14.3737 21.8857
Pd 27.1097 15.8304 19.4757
Au 23.6214 13.6052 22.1993
Pd 21.8555 19.4911 24.0907
Au 25.9816 11.702 21.7981
Pd 23.8733 18.5024 22.791
Pd 22.896 23.6232 11.953
Au 24.5599 20.2186 8.89385
Au 23.4203 20.8042 11.4499
Pd 22.7102 21.5894 13.9016
Au 25.1309 17.6587 8.21213
Pd 26.0209 21.2968 10.9321
Au 24.0193 18.1303 10.6982
Pd 25.4207 19.3133 12.7466
Au 26.0321 16.1146 10.4098
Pd 26.5884 18.7639 10.305
Au 27.9506 19.9337 12.3344
Pd 21.3027 17.6844 18.331
Au 27.7731 17.2999 17.1277
Pd 24.7706 16.5572 12.8997
Au 18.1976 19.3928 15.2334
Pd 20.6017 22.5133 18.0065
Au 25.6525 17.0301 21.4608
Pd 23.5945 17.5135 19.7111
Au 24.4401 19.9012 20.5732
Pd 21.6027 18.7431 21.2239
Au 24.7867 15.565 23.7195
Pd 26.1318 18.3852 19.1157
Pd 16.3998 25.4932 11.0119
Au 16.5674 26.2844 16.6155
Au 21.0161 25.2988 13.5441
Pd 23.9823 18.72 17.4424
Au 19.0883 23.5524 8.98639
Pd 24.8166 22.3579 15.7783
Au 18.5509 24.1378 14.1685
Pd 22.4755 21.2163 16.5652
Au 25.0549 22.4403 13.0855
Pd 23.2177 24.1481 14.5757
Au 27.3663 17.3317 12.5775
Pd 26.7357 20.9133 14.4581
Au 26.5107 19.7355 16.8191
Pd 20.8562 23.1602 15.3865
Au 17.242 24.9144 23.5587
Pd 16.3501 26.3027 19.4283
Au 22.844 22.7233 19.6021
Pd 24.6489 21.2035 18.1831
Au 18.6974 23.676 19.5109
Pd 16.8633 20.4193 22.0449
Au 20.9327 22.1575 23.7827
Pd 21.0407 24.9531 18.8607
