665
Atoms. Timestep: 20682
Pd 9.53193 9.29472 7.29567
Pd 7.17378 9.71805 18.3134
Pd 8.58156 14.1004 17.9737
Pd 8.87376 7.75924 17.5258
Pd 10.7217 10.1504 22.017
Au 9.96787 7.14047 9.06199
Au 13.4319 4.76507 6.71048
Pd 12.1813 8.77919 7.84015
Au 8.25393 8.782 12.956
Pd 6.27571 9.06852 11.0774
Au 9.36551 5.67956 19.3388
Pd 3.37599 17.3099 14.5468
Au 4.5796 13.1158 16.6233
Pd 5.55027 17.5603 21.5347
Au 3.86444 18.3216 17.2416
Pd 5.79077 16.851 15.9743
Au 10.5839 13.2148 4.8591
Au 5.74213 9.65526 13.7069
Pd 9.2911 10.756 4.915
Au 10.4615 8.04015 23.66
Pd 9.24912 13.5273 13.6128
Au 4.00594 13.8916 11.9244
Pd 6.09918 15.0798 18.079
Au 4.4981 21.2301 17.0636
Pd 8.37012 21.1516 16.9191
Au 4.06934 13.7862 19.2121
Pd 8.24902 17.946 21.3977
Au 15.1757 21.8406 4.72369
Au 6.20467 7.10985 13.0603
Pd 7.40705 13.7662 5.81388
Au 4.8554 11.1921 18.7891
Pd 8.07294 6.77522 15.0201
Au 6.41989 21.4176 15.0838
Pd 4.15036 14.1972 9.24767
Au 4.2973 16.5818 19.3836
Pd 8.04731 25.338 17.7894
Au 17.6027 20.2586 22.2636
Pd 12.1159 17.0766 27.4662
Au 10.7918 16.3973 2.63721
Au 5.72773 12.6936 7.60051
Pd 6.83325 19.7202 8.18204
Au 5.47186 10.5702 9.06735
Pd 4.67613 12.215 14.0965
Au 7.21969 10.6659 6.74238
Pd 7.78407 18.7526 15.117
Au 6.87555 17.6141 19.0674
Pd 7.9516 22.4358 21.4121
Au 14.3754 21.0968 26.8064
Pd 9.46809 13.8833 20.4934
Au 7.5614 19.2529 5.658
Au 4.0304 19.3752 12.5746
Pd 7.48491 16.5219 5.98656
Au 3.64158 21.3836 14.5677
Pd 5.26967 22.0086 12.6403
Au 8.52217 27.5514 13.9789
Pd 11.7582 22.4984 16.123
Au 3.64142 16.6254 11.7936
Pd 12.2672 19.3511 18.0949
Au 12.0735 16.2533 22.9251
Pd 12.0585 20.8257 20.4499
Pd 9.52138 4.82952 10.4748
Pd 7.71216 6.90512 10.6759
Pd 13.6667 9.82623 5.38389
Pd 10.2248 5.68913 16.5904
Pd 10.2962 8.11475 14.6038
Pd 3.64052 15.621 16.9347
Pd 12.2302 2.98082 13.2907
Pd 5.05468 19.2239 14.9982
Pd 10.6305 2.75159 15.4192
Pd 12.4311 6.24186 23.197
Pd 8.5638 13.9808 24.5931
Pd 10.7951 10.964 8.93674
Au 7.3192 8.65782 8.59028
Au 11.1949 8.68284 5.23321
Pd 13.4466 11.2138 7.83885
Au 11.3061 6.40355 6.93639
Pd 12.1544 13.9183 7.22028
Au 9.5754 12.2229 16.1933
Pd 7.52315 5.45114 17.3721
Au 10.0232 6.94754 12.0176
Pd 12.9082 10.0907 10.2084
Au 6.20554 7.76032 16.7124
Pd 11.4921 12.2398 20.2643
Au 9.60726 3.16801 12.8356
Pd 10.5629 9.66034 16.8953
Au 9.79917 18.2618 26.4602
Pd 8.82856 6.67574 21.6958
Au 6.46254 11.039 23.1867
Pd 7.23571 15.4654 20.5828
Au 8.93636 11.1465 24.1575
Pd 7.30073 13.426 22.3719
Au 9.43088 15.6021 22.551
Pd 13.0608 11.4323 22.5522
Pd 14.4781 19.4342 3.86147
Au 13.4222 16.7322 2.95714
Au 14.113 15.0772 5.14439
Pd 8.05119 11.4462 9.23847
Au 12.4052 15.4881 9.6397
Pd 13.4428 17.6655 5.55466
Au 7.4708 11.3086 11.9995
Pd 6.99455 14.2838 15.6345
Au 6.9918 12.092 17.208
Pd 10.2897 13.6076 9.23042
Au 7.04949 7.23278 19.4784
Pd 6.20114 21.6097 19.1711
Au 9.37074 11.4475 18.7355
Pd 9.79917 10.8726 13.9165
Au 6.79584 12.8906 19.7516
Pd 6.79836 15.863 23.2213
Au 4.86899 12.1355 21.3772
Pd 12.1558 11.8185 17.422
Au 19.7689 5.79902 23.3239
Pd 15.9388 20.0957 24.398
Au 11.5784 10.5211 24.5711
Pd 17.9703 10.0781 21.1895
Pd 13.7482 18.5755 8.28721
Au 15.9697 17.2272 3.6364
Au 9.234 12.4045 7.0843
Pd 7.6413 14.339 8.53978
Au 11.5286 15.8353 5.10928
Pd 13.8158 20.3273 6.40429
Au 4.67496 11.2055 11.6339
Pd 6.17952 12.9524 10.342
Au 4.50214 14.9443 14.4189
Pd 8.52849 14.3395 11.1755
Au 11.9824 18.6238 13.2871
Pd 7.25342 11.8237 14.5697
Au 11.3623 16.7491 17.4476
Pd 11.2035 14.1397 18.2534
Au 9.06167 25.131 20.2496
Pd 13.0855 8.75836 22.5067
Au 6.27733 9.76483 20.7929
Pd 10.5892 18.5339 20.1304
Au 4.89437 14.8249 21.5187
Pd 16.4198 12.155 19.4665
Au 6.56302 20.1106 21.563
Pd 14.7472 18.2003 25.8965
Pd 9.81357 20.4862 4.64318
Au 11.3875 19.2131 6.20253
Au 11.7745 18.7894 3.53226
Pd 7.05107 17.0039 8.73888
Au 8.95911 15.1725 4.12353
Pd 11.2323 19.6359 8.80973
Au 5.4195 17.9698 6.84583
Pd 5.78541 17.2039 13.1962
Au 5.92792 15.5805 10.7715
Pd 7.99149 17.1712 11.4253
Au 5.24506 10.3171 16.2188
Pd 10.5708 24.2865 17.8687
Au 10.21 17.5549 15.129
Pd 8.22058 16.5266 16.8432
Au 9.40602 18.7363 17.67
Pd 10.4406 20.3836 24.74
Au 17.0138 22.6463 23.7318
Pd 14.018 21.0848 16.9275
Au 14.1931 18.818 28.3103
Pd 16.9042 16.7775 22.6004
Au 16.7463 22.1596 26.2248
Pd 13.2528 20.096 24.6349
Pd 4.24916 16.8479 9.03333
Au 11.6168 21.8668 6.82481
Au 5.44966 15.3065 7.18871
Pd 6.52642 23.2643 16.9866
Au 5.63094 18.4024 10.6099
Pd 10.5209 22.1972 9.39046
Au 6.79505 19.7575 12.7579
Pd 12.4409 23.8181 8.38135
Au 9.39639 18.979 12.7641
Pd 8.62516 21.5754 11.605
Au 4.80572 19.3518 19.5616
Pd 9.08253 23.4877 15.852
Au 10.8413 20.0682 15.798
Pd 8.974 21.1558 14.2708
Au 11.8046 15.9765 20.168
Pd 8.46141 22.9505 18.8642
Au 9.54927 18.0955 23.6985
Pd 5.14878 23.6912 14.7408
Au 17.0325 17.1245 27.4699
Pd 11.9706 17.9441 25.0107
Au 12.9182 25.787 17.5013
Pd 7.95305 20.8232 23.7795
Pd 9.14323 9.30493 10.4144
Pd 13.513 7.22796 5.76223
Pd 11.9151 5.03367 11.7409
Pd 11.0943 9.33271 12.2155
Pd 12.3307 7.41 16.0323
Pd 15.206 3.44905 15.4728
Pd 15.9464 1.03497 15.3274
Pd 10.6336 5.28798 14.0928
Pd 14.8615 7.2245 23.8517
Pd 14.6292 4.86367 22.472
Pd 11.5509 9.82022 19.4165
Pd 13.5526 12.5142 5.35394
Au 11.9221 11.1044 3.7055
Au 15.7769 8.09262 4.66427
Pd 15.7663 11.2516 6.6055
Au 12.4272 14.1285 3.10998
Pd 15.8192 10.6734 4.00164
Au 8.01416 9.54092 15.667
Pd 12.3275 11.664 12.5345
Au 13.2059 1.68888 15.399
Pd 12.6207 7.03146 13.3631
Au 11.0132 2.69717 10.702
Pd 9.09089 8.87221 20.041
Au 13.9079 6.33571 18.0043
Pd 12.2308 10.1376 14.8927
Au 9.37361 3.41618 17.6864
Pd 17.0707 11.3124 23.4127
Au 8.1412 8.99809 22.6638
Pd 18.5923 13.6906 18.9182
Au 10.6284 15.5867 25.3792
Pd 19.5253 23.0573 24.3804
Au 10.9616 4.90811 21.4259
Pd 16.6626 3.33141 22.0443
Pd 19.1541 13.6693 4.9988
Au 14.2735 12.2922 2.78679
Au 16.6128 15.8165 5.85133
Pd 14.3035 16.0862 7.67351
Au 12.8007 12.7502 9.90682
Pd 17.5669 13.5603 7.09315
Au 13.8123 13.9191 13.195
Pd 10.0748 14.8896 15.7685
Au 13.9267 11.126 19.7683
Pd 15.6047 10.8727 9.30955
Au 11.7948 12.9396 14.8202
Pd 13.7699 13.7784 19.2988
Au 8.4936 11.3384 21.2848
Pd 15.2491 12.7349 21.7005
Au 18.3259 12.7809 21.4595
Pd 17.6906 18.0704 24.967
Au 10.5445 2.81234 19.9508
Pd 13.7956 8.43275 19.8832
Au 16.7751 11.9282 26.0125
Pd 14.7193 15.0479 23.1662
Au 6.87946 18.4519 23.7619
Pd 18.6902 10.2645 25.2434
Pd 15.2716 14.7324 2.71521
Au 17.3943 20.3342 5.03317
Au 17.8206 15.2341 3.41159
Pd 9.59591 17.7206 4.78169
Au 18.5594 18.6545 7.14745
Pd 16.4278 18.3759 8.7833
Au 9.57754 16.163 9.43596
Pd 10.2724 16.2353 12.7404
Au 6.53845 13.9477 12.9379
Pd 9.6299 15.1482 6.85771
Au 12.7278 13.9781 21.7243
Pd 9.34116 16.3506 19.2946
Au 14.8533 12.618 24.3241
Pd 11.3963 7.3892 18.4751
Au 6.42791 19.4553 17.3506
Pd 13.5002 15.868 25.377
Au 8.11937 16.5559 25.3612
Pd 14.2787 20.4665 22.2018
Au 10.5102 12.6796 25.8681
Pd 19.4412 16.3716 26.7225
Au 13.1982 11.7988 26.2624
Pd 18.6727 22.9103 21.7302
Pd 13.3239 21.2438 9.0628
Au 16.1233 20.7977 7.60302
Au 12.4523 21.2436 4.35429
Pd 11.6205 16.9397 7.62931
Au 15.9094 18.4251 6.13504
Pd 13.4145 19.0871 10.8212
Au 9.1623 18.0794 7.50467
Pd 11.0554 17.8564 10.7248
Au 13.0346 16.394 12.113
Pd 14.878 16.9622 10.3027
Au 8.01482 16.1229 14.0536
Pd 9.70186 20.444 21.9232
Au 15.1757 18.8075 18.0324
Pd 13.4964 23.5045 13.7157
Au 13.3189 18.3617 20.3081
Pd 12.419 13.6734 24.3795
Au 13.419 23.266 21.2959
Pd 10.5198 22.8965 20.7282
Au 14.9954 13.8697 26.6809
Pd 14.4017 17.8257 23.2347
Au 15.8754 26.8291 21.602
Pd 16.965 21.0905 16.9923
Pd 14.4655 22.885 7.09479
Au 17.3426 22.7606 9.08116
Au 7.93951 22.2761 9.02117
Pd 9.2173 20.7493 7.28424
Au 11.2746 20.6912 11.5093
Pd 13.7764 26.3336 14.708
Au 8.73801 19.4458 9.98638
Pd 11.2931 27.4951 13.9519
Au 9.40968 24.0979 11.2195
Pd 14.7898 23.2776 9.86022
Au 13.1404 18.3769 15.8007
Pd 9.64978 26.4635 16.0963
Au 10.4185 26.9194 18.625
Pd 7.22737 25.4017 15.1911
Au 16.1266 27.5238 19.0942
Pd 10.5956 21.4353 18.325
Au 11.8102 27.9791 16.5681
Pd 15.6541 25.9085 16.8251
Au 12.0033 19.7987 27.0355
Pd 14.482 20.8653 19.5432
Au 10.642 25.0578 22.369
Pd 8.38105 20.2007 19.611
Pd 13.7998 6.69019 8.42254
Pd 13.6968 9.34007 12.6039
Pd 12.0389 4.82333 9.10378
Pd 11.7934 4.72353 18.5942
Pd 14.3711 5.68622 10.8045
Pd 8.08677 5.2844 12.7902
Pd 14.5767 1.76035 13.0418
Pd 14.2352 3.6455 18.0179
Pd 15.3557 9.95532 21.7963
Pd 18.5284 4.88237 20.9949
Pd 13.3102 5.98396 20.5723
Pd 11.4222 11.1131 6.33937
Au 15.0314 8.79911 7.57096
Au 13.5372 3.05619 10.7204
Pd 9.95899 11.8361 11.3244
Au 12.2599 7.48867 10.4835
Pd 14.8209 11.6549 11.631
Au 8.37011 4.08988 15.1916
Pd 12.6203 4.42597 15.8845
Au 14.5276 4.42225 13.0758
Pd 14.986 8.44941 10.423
Au 11.9432 2.18722 17.7534
Pd 11.2184 7.58358 21.0767
Au 14.5476 8.79552 15.0074
Pd 21.566 6.86866 16.9941
Au 13.1419 3.3178 20.5685
Pd 14.3775 1.03529 17.6263
Au 15.7582 7.27782 21.3379
Pd 16.241 9.87939 13.1602
Au 14.587 16.1962 27.8457
Pd 10.3969 12.8915 22.8371
Au 12.7232 8.19625 25.1067
Pd 18.6544 7.4643 21.5754
Pd 18.4859 17.6735 4.69531
Au 17.6932 12.3852 2.93292
Au 14.8917 13.5132 7.86754
Pd 16.1377 13.3033 4.81858
Au 11.37 14.0851 11.8463
Pd 20.3194 11.8711 6.71306
Au 14.5388 11.5956 14.5086
Pd 14.8591 11.9988 17.2482
Au 17.7469 10.9185 11.1531
Pd 15.7861 13.9411 15.1412
Au 17.1286 8.61965 23.5538
Pd 19.8424 11.1013 23.0033
Au 13.561 9.48842 17.4268
Pd 17.7782 12.8572 16.5494
Au 19.3508 16.2212 18.6457
Pd 17.1422 13.9951 23.5719
Au 22.1662 7.28964 23.0456
Pd 16.6722 14.6975 20.7174
Au 14.7236 9.94067 24.5289
Pd 20.9898 9.19017 21.5472
Au 19.4097 1.95115 17.7732
Pd 18.3146 10.8409 18.2893
Pd 18.7733 21.3387 7.19442
Au 21.789 13.2785 4.55419
Au 20.2031 20.0359 5.40528
Pd 18.4213 20.0271 9.63792
Au 16.817 15.6921 8.66049
Pd 20.8231 19.4712 8.46041
Au 17.035 13.1424 9.79889
Pd 14.7839 14.3887 10.578
Au 15.6635 15.973 12.944
Pd 16.988 18.1184 11.4661
Au 13.432 14.2447 16.569
Pd 13.892 16.422 18.1603
Au 16.5705 16.7255 19.0423
Pd 15.0331 16.5349 15.6031
Au 15.8591 18.6185 20.9614
Pd 19.8036 8.38987 23.8182
Au 17.6858 14.434 26.5675
Pd 21.0367 14.0342 20.0502
Au 12.3252 14.2972 27.1629
Pd 23.2725 16.8811 24.5752
Au 9.70096 22.8547 23.5087
Pd 18.5616 20.5856 24.9028
Pd 16.7773 24.9587 10.6136
Au 20.1894 22.1133 9.32081
Au 17.0124 23.0858 6.20976
Pd 15.8536 20.5986 10.3305
Au 18.4807 22.058 11.5151
Pd 19.366 24.5206 10.139
Au 18.9768 17.3025 9.58346
Pd 14.6791 18.4954 13.1248
Au 15.469 21.9763 14.812
Pd 18.0028 22.4384 14.1986
Au 12.4183 15.8927 14.6937
Pd 13.0333 20.8136 14.4061
Au 19.3446 18.2173 22.8065
Pd 19.8857 24.7703 17.0613
Au 15.7189 19.3188 15.4397
Pd 13.2811 26.1169 21.9558
Au 21.2956 14.9955 25.2885
Pd 12.3838 23.2645 11.0283
Au 22.2415 18.8845 22.9883
Pd 14.4536 22.4105 24.3066
Au 21.9419 22.9422 23.3577
Pd 18.4589 18.2589 20.2105
Pd 16.8007 26.6946 12.7144
Au 15.8508 27.3599 10.2802
Au 18.0518 26.4295 8.8209
Pd 20.4659 21.3592 13.7796
Au 16.0506 22.9928 12.2525
Pd 11.2064 25.4935 9.91437
Au 10.8901 22.746 13.3991
Pd 6.16939 20.9587 10.4239
Au 16.0292 24.9571 7.98965
Pd 16.0244 27.836 14.9357
Au 7.54251 23.3113 13.4833
Pd 14.4175 28.1718 17.1161
Au 6.71384 23.5983 10.9553
Pd 22.8959 24.3623 13.3567
Au 7.32478 25.7841 12.3918
Pd 11.9797 21.7706 22.9539
Au 14.635 25.2586 19.597
Pd 13.2269 27.5274 19.4947
Au 11.8504 25.1869 20.0131
Pd 20.2895 27.2095 15.9398
Au 23.6485 20.9644 23.9501
Pd 9.51423 25.1107 13.7582
Pd 15.9902 6.28124 6.70551
Pd 15.0709 4.24135 8.67549
Pd 17.101 5.28869 11.7086
Pd 16.0774 3.06557 10.9387
Pd 19.2446 4.13369 13.1985
Pd 16.9728 5.31446 14.3617
Pd 18.8959 5.88848 16.1234
Pd 16.2027 9.44698 19.166
Pd 16.501 10.2951 16.1835
Pd 15.8149 7.85145 17.1103
Pd 17.3143 6.86556 19.2136
Pd 17.4771 8.85772 9.15451
Au 18.2048 6.9971 5.04065
Au 15.3409 7.12452 12.8862
Pd 17.4342 8.07458 11.6252
Au 19.1605 6.35307 10.2699
Pd 19.7729 9.02828 10.6901
Au 16.9619 2.76066 13.405
Pd 17.3279 8.00286 14.7298
Au 19.1111 6.70101 13.0722
Pd 19.1235 9.74713 13.2135
Au 18.3017 3.25498 15.678
Pd 18.4006 8.28766 17.1822
Au 22.5236 5.05855 18.8658
Pd 19.0948 10.5088 15.7899
Au 16.3254 5.24583 17.0852
Pd 17.5995 11.8893 14.0933
Au 23.5771 8.75701 17.335
Pd 20.9719 9.53813 17.4004
Au 20.5035 3.52212 19.6909
Pd 18.2817 4.27924 18.3715
Au 23.8729 6.65531 20.976
Pd 14.539 6.12881 15.2562
Pd 18.0733 11.3167 5.40388
Au 17.48 8.97786 6.49619
Au 18.0951 11.2164 8.16378
Pd 16.483 13.4577 12.462
Au 21.2135 11.4085 12.1769
Pd 20.2235 11.5661 9.67832
Au 19.2372 13.2046 11.8988
Pd 19.4907 16.9367 12.7345
Au 17.4736 15.9006 16.4638
Pd 20.763 15.3451 10.9959
Au 20.1958 12.6096 14.5341
Pd 15.9307 14.3745 17.9451
Au 21.5582 10.2318 14.6852
Pd 22.3514 13.7157 15.9527
Au 20.599 12.2662 17.5383
Pd 19.2599 19.0235 26.9025
Au 19.1073 15.7022 21.3197
Pd 22.6463 10.422 19.4105
Au 15.8242 4.7519 19.9572
Pd 15.3892 2.0902 19.9561
Au 18.0603 2.28397 20.0848
Pd 19.902 6.20458 18.841
Pd 21.662 24.1872 8.71858
Au 22.9147 15.6229 5.4622
Au 20.4829 15.7991 4.37219
Pd 21.1999 18.0899 10.8971
Au 19.4641 14.1626 9.01786
Pd 21.3749 16.5908 8.50427
Au 17.7736 15.4826 11.2092
Pd 17.3526 17.6215 14.196
Au 21.0711 15.0537 13.903
Pd 22.7543 16.7644 12.853
Au 19.743 17.3347 15.6037
Pd 18.9651 15.7617 24.1947
Au 20.2402 20.9034 22.7462
Pd 18.6208 19.8509 15.0659
Au 19.8885 14.6751 16.4651
Pd 16.1408 15.9815 25.1775
Au 25.3918 20.2896 19.0047
Pd 22.2864 20.5096 18.8419
Au 23.2216 14.2784 23.4569
Pd 17.1006 5.82187 23.122
Au 19.5009 8.75709 19.4646
Pd 21.6313 22.9747 18.0608
Pd 20.8428 23.2735 11.9849
Au 19.1509 24.1439 7.50214
Au 23.1887 23.377 10.7649
Pd 15.9109 24.7337 14.2952
Au 19.1492 19.535 12.2093
Pd 21.5016 20.7232 11.1048
Au 13.9836 21.3336 12.0413
Pd 14.1906 23.7687 16.3267
Au 22.4218 17.0954 15.5839
Pd 16.6582 20.3373 12.9922
Au 17.8698 18.4775 17.3398
Pd 18.3541 22.8029 18.7698
Au 21.2986 20.0418 16.2402
Pd 21.0862 18.0805 18.0415
Au 24.1391 16.5868 21.9961
Pd 11.6456 24.9443 15.3064
Au 21.3282 26.6518 20.7381
Pd 17.1672 20.5517 19.5805
Au 21.2388 20.5631 25.1531
Pd 18.5278 26.7565 20.8573
Au 25.2849 20.795 21.6135
Pd 20.4815 21.9434 20.2268
Pd 18.4569 24.6364 12.7115
Au 22.2282 25.3925 15.7107
Au 24.6549 21.0582 10.7475
Pd 15.9608 22.2983 21.2917
Au 18.6532 28.0758 13.9935
Pd 17.2 23.6809 16.4234
Au 14.5504 28.0612 12.6161
Pd 13.8684 25.7859 9.46839
Au 19.5685 22.1268 16.4016
Pd 12.5991 24.2165 23.8073
Au 12.4989 27.4455 11.1973
Pd 14.4717 25.3943 11.9913
Au 25.7154 18.4994 11.1764
Pd 23.955 23.9447 17.0695
Au 25.2306 23.0698 12.4259
Pd 9.78168 26.8678 11.7216
Au 11.8908 18.9804 22.5226
Pd 17.7281 25.5396 18.3321
Au 19.8764 27.1799 18.5506
Pd 17.7705 27.8253 16.9048
Au 17.8129 25.2401 23.0967
Pd 20.2283 24.0162 14.5412
Pd 16.4282 6.51468 9.30857
Pd 21.3283 5.66037 11.7481
Pd 19.9313 9.20425 8.03925
Pd 21.1407 5.56532 14.5305
Pd 23.5554 7.40846 11.158
Pd 20.7652 4.18161 16.9581
Pd 23.0351 11.2716 16.6056
Pd 24.5715 6.54871 18.249
Pd 20.1019 8.05761 15.124
Pd 21.1574 5.85054 21.1194
Pd 26.2635 8.6434 17.3198
Pd 18.0441 9.3505 3.64151
Au 20.1082 11.3347 3.74492
Au 17.748 4.33575 9.17907
Pd 22.3645 9.7534 10.4199
Au 21.5208 7.33697 9.34889
Pd 18.6415 6.76024 7.67825
Au 21.3891 8.11177 12.6123
Pd 23.4793 9.73187 12.8606
Au 24.5953 11.4777 8.81025
Pd 23.7399 15.0084 7.93737
Au 23.3311 5.1746 16.1032
Pd 25.3615 7.97314 13.1264
Au 24.9827 8.89644 19.6588
Pd 23.9268 11.8277 11.285
Au 27.2412 10.6109 15.7811
Pd 22.8471 7.84998 14.8681
Au 25.2406 9.53167 10.7764
Pd 20.1872 11.4084 20.077
Au 22.145 7.80679 19.4935
Pd 20.7616 17.874 25.0413
Au 24.105 11.6217 23.3878
Pd 23.5551 5.90187 13.3809
Pd 19.9737 9.17856 5.40547
Au 22.2412 10.623 5.27633
Au 22.2626 10.632 7.97195
Pd 21.1846 14.365 6.97067
Au 23.956 8.61178 8.63996
Pd 21.1347 17.6954 6.12882
Au 22.3103 13.2543 9.40696
Pd 23.1514 12.2742 13.866
Au 22.0635 8.22856 6.79855
Pd 22.9049 14.1503 12.0031
Au 24.8397 9.71571 15.2014
Pd 23.1044 12.9077 18.7157
Au 26.0273 10.8229 13.0858
Pd 25.2388 12.4467 15.3508
Au 24.744 11.5336 20.7136
Pd 24.6904 14.2733 17.1368
Au 25.2248 6.92365 15.578
Pd 23.5746 18.7819 20.4636
Au 16.687 19.7011 27.1031
Pd 23.6145 9.32595 21.858
Au 20.3458 24.9496 22.506
Pd 19.1773 12.9273 24.9889
Pd 22.793 21.5477 8.82272
Au 21.2207 22.2351 6.77364
Au 19.0931 15.9879 6.86968
Pd 23.4049 18.9354 9.44947
Au 23.6582 17.5369 7.23211
Pd 23.2836 12.721 6.71081
Au 23.2638 16.2918 10.2969
Pd 25.5356 13.4395 12.7917
Au 27.6706 12.6988 14.2589
Pd 24.934 14.0364 10.0921
Au 22.1661 15.5076 17.8765
Pd 22.1889 11.9517 21.7168
Au 21.8193 16.6529 20.2915
Pd 24.9091 16.7448 16.3756
Au 22.0821 9.84096 23.9838
Pd 19.5395 20.2811 18.363
Au 21.7961 12.3381 24.6768
Pd 26.1007 18.3106 20.8772
Au 26.3962 15.7378 20.5072
Pd 20.8453 19.1957 20.6618
Au 16.6864 2.27204 17.6181
Pd 21.3716 16.2957 22.8392
Pd 23.0636 21.6797 13.0411
Au 25.4954 16.7642 9.17115
Au 23.4278 19.1577 12.1961
Pd 21.1956 18.8028 13.7602
Au 22.6561 19.936 6.66241
Pd 26.5602 14.981 15.0376
Au 25.3536 15.9502 12.0021
Pd 25.2221 17.7544 13.9579
Au 27.2664 13.0252 16.9521
Pd 25.8462 19.6044 16.0958
Au 27.3239 17.4261 15.7519
Pd 24.365 16.4063 19.0902
Au 25.9486 13.4512 19.3121
Pd 24.0269 15.0303 14.3986
Au 18.2596 14.804 14.0812
Pd 22.2412 22.5702 15.4438
Au 22.7458 21.2602 21.4344
Pd 26.4027 18.0141 18.2509
Au 24.9124 18.7414 23.2769
Pd 14.47 16.0805 20.8221
Au 20.4837 13.7928 22.7833
Pd 25.3296 11.1503 17.9183
Pd 19.0114 26.9019 11.3209
Au 11.8701 25.325 12.5711
Au 20.6391 26.3296 13.4164
Pd 23.932 21.2866 17.0205
Au 21.6209 25.6327 11.0696
Pd 24.8744 22.443 14.917
Au 13.4553 28.9747 14.7745
Pd 22.2731 23.9899 20.7775
Au 25.6417 20.4274 13.2977
Pd 18.1461 25.8138 15.182
Au 23.7861 14.2286 20.8542
Pd 23.6855 18.6407 17.6062
Au 24.0804 22.5807 19.4299
Pd 23.5274 19.6816 14.8855
Au 12.0541 22.294 25.663
Pd 15.6781 23.034 18.5469
Au 22.1725 25.594 18.4247
Pd 26.9529 15.534 17.7852
Au 19.8755 24.6515 19.8221
Pd 12.8798 22.9856 18.6517
Au 15.2316 24.5597 22.8614
Pd 16.992 24.5821 20.6032
