665
Atoms. Timestep: 20256
Pd 8.70471 8.89363 8.31017
Pd 5.91461 8.74659 12.3501
Pd 3.4726 8.79807 16.5756
Pd 3.34458 7.77601 18.9974
Pd 6.43734 8.29698 22.4143
Au 9.28706 10.0896 5.91098
Au 6.51154 9.85546 9.90738
Pd 7.164 11.037 7.52515
Au 3.93559 9.8864 14.0753
Pd 4.54012 10.9949 11.6318
Au 3.07498 10.4297 18.7535
Pd 3.45311 11.5601 16.2883
Au 4.1878 9.18919 21.1147
Pd 4.15084 11.8896 20.7544
Au 5.14354 10.6404 23.2495
Pd 6.09231 12.1397 25.276
Au 7.74157 12.1972 5.0849
Au 5.09631 12.0925 9.16992
Pd 5.69416 13.2118 6.74941
Au 3.90735 12.6511 13.8096
Pd 4.46966 13.7547 11.3607
Au 3.08139 13.1926 18.5125
Pd 3.50366 14.3381 16.0662
Au 5.19548 13.3322 22.7922
Pd 4.1845 14.6641 20.5284
Au 8.44927 13.4405 25.6289
Pd 6.3725 14.7904 24.7006
Au 8.94605 14.3773 3.80264
Au 4.96559 14.8459 8.88112
Pd 5.60856 15.9446 6.44017
Au 3.9219 15.4423 13.5909
Pd 4.4382 16.5217 11.1168
Au 3.15551 15.9739 18.3165
Pd 3.54863 17.1218 15.8704
Au 5.29068 16.1133 22.5607
Pd 4.28471 17.4565 20.359
Au 7.78678 16.0027 26.6839
Pd 6.47723 17.4704 24.6042
Au 6.27662 14.3201 4.3567
Au 4.9575 17.576 8.60043
Pd 6.85862 18.3384 6.63495
Au 3.93615 18.2326 13.3739
Pd 4.46526 19.2525 10.8732
Au 3.24468 18.7499 18.1269
Pd 3.6071 19.8834 15.6706
Au 5.48138 18.9116 22.4769
Pd 4.39086 20.1898 20.1902
Au 7.60987 18.667 26.6408
Pd 6.86311 20.2904 24.4994
Au 8.16584 20.7464 6.81272
Au 5.5848 21.6546 10.839
Pd 7.5639 16.6449 4.57305
Au 4.18061 20.9548 13.1085
Pd 7.17159 22.1089 12.8962
Au 3.46211 21.4551 17.9594
Pd 6.59603 23.7904 14.9487
Au 5.63486 21.5622 22.2212
Pd 4.64967 22.8526 19.9795
Au 9.44877 20.4665 26.1433
Pd 8.92474 22.0673 24.0159
Pd 10.8928 8.03031 6.76166
Pd 8.06149 7.69836 10.6757
Pd 10.2785 6.75818 9.08996
Pd 5.33116 7.66031 14.7819
Pd 7.42677 6.56591 13.0662
Pd 5.39505 7.00873 17.363
Pd 7.50393 6.2352 15.7376
Pd 5.56413 6.94352 20.1714
Pd 7.6171 6.07073 18.5583
Pd 8.70668 7.39614 23.5928
Pd 7.79472 6.07262 21.3726
Pd 11.9945 10.1724 5.36649
Au 13.4854 8.00803 5.9051
Au 11.0455 10.3629 8.02043
Pd 8.90037 11.2628 9.64351
Au 10.4222 9.08641 10.4594
Pd 13.7363 10.3728 7.41937
Au 8.2822 10.048 12.045
Pd 6.26656 11.162 13.7015
Au 7.67699 8.84654 14.4715
Pd 10.692 11.4392 11.8635
Au 5.70579 10.0231 16.1539
Pd 5.41402 11.8431 18.2881
Au 7.71218 8.47937 17.2016
Pd 8.05545 11.2666 15.9122
Au 5.53206 9.25242 18.79
Pd 6.56559 10.6485 21.0142
Au 7.84451 8.37784 20.05
Pd 7.9655 10.7587 18.6928
Au 8.84193 9.73263 22.3407
Pd 9.75441 10.9903 24.6283
Au 7.33801 9.72818 24.5739
Pd 11.247 11.1387 22.3489
Pd 10.4941 12.275 4.60446
Au 13.2806 12.32 4.14017
Au 9.50242 12.464 7.18546
Pd 7.40794 13.4739 8.82503
Au 11.3034 12.7209 9.40621
Pd 12.2589 12.5553 6.71475
Au 6.83398 12.3087 11.2453
Pd 6.30125 14.0234 13.3954
Au 8.62779 12.4673 13.4411
Pd 9.20208 13.6848 10.9865
Au 5.81984 12.9019 15.8203
Pd 5.43371 14.5596 18.0641
Au 7.87389 13.2517 17.8455
Pd 8.29144 14.3186 15.4248
Au 6.54358 13.2522 20.3341
Pd 7.72902 14.6335 22.3363
Au 9.04016 12.1677 20.9894
Pd 9.0732 14.6371 19.8968
Au 7.62207 12.0927 23.2433
Pd 10.6756 12.5423 26.5638
Au 12.3484 12.3714 24.6431
Pd 10.0841 13.4703 23.4671
Pd 10.3088 16.7313 4.0248
Au 11.7407 14.4529 3.40598
Au 7.97528 14.6152 6.36259
Pd 7.34191 16.2889 8.4808
Au 9.76629 14.8929 8.52006
Pd 10.7189 14.6953 5.90121
Au 6.80091 15.1492 10.9416
Pd 6.29266 16.8092 13.1392
Au 8.736 15.4501 13.0136
Pd 9.18887 16.6199 10.5754
Au 5.85643 15.6957 15.5998
Pd 5.51547 17.3263 17.8811
Au 7.88972 15.9654 17.6432
Pd 8.27062 17.1158 15.197
Au 6.58623 15.9964 20.1292
Pd 7.75201 17.3794 22.1827
Au 10.2609 15.9424 22.0571
Pd 9.0495 17.3434 19.7117
Au 8.9341 15.9389 24.3939
Pd 10.0473 17.5287 26.5097
Au 11.0878 14.9776 25.7352
Pd 11.4355 17.4385 24.2447
Pd 8.91516 18.9935 4.82198
Au 11.6524 19.1145 4.22703
Au 9.27617 17.0109 6.58653
Pd 8.60522 18.7501 8.67572
Au 11.041 17.3393 8.64796
Pd 10.6309 19.3984 6.84882
Au 6.76481 17.9433 10.6183
Pd 6.33986 19.5558 12.8746
Au 8.69097 18.265 12.7289
Pd 10.4141 19.1115 10.76
Au 5.87051 18.4856 15.3815
Pd 5.62885 20.0737 17.6868
Au 7.96421 18.7465 17.4875
Pd 8.17493 19.939 14.9766
Au 6.70172 18.7813 20.0145
Pd 7.99164 20.251 22.0813
Au 10.2153 18.6475 21.787
Pd 9.19129 20.1603 19.619
Au 8.90779 18.6504 24.2699
Pd 11.9683 19.4785 26.2189
Au 13.9083 21.4581 25.9395
Pd 10.924 20.275 23.7988
Pd 7.53678 22.3409 8.93498
Au 10.2334 21.3566 5.02906
Au 6.14493 20.0121 8.71998
Pd 8.40179 24.4825 13.0432
Au 9.94552 21.1705 8.941
Pd 9.59559 23.0526 7.09704
Au 7.96621 20.4225 10.8001
Pd 9.94891 25.048 15.0933
Au 9.71411 20.8477 12.8834
Pd 9.1594 22.9276 11.0055
Au 5.81605 21.3134 15.2064
Pd 10.8981 23.3252 13.1716
Au 8.94948 22.5394 14.9054
Pd 11.6357 21.243 14.8814
Au 6.82592 21.5007 19.7582
Pd 7.77103 23.0745 21.7502
Au 10.1954 21.9208 21.6528
Pd 5.64679 22.9073 17.4602
Au 10.9603 24.0046 23.3628
Pd 9.79417 24.7543 21.0494
Au 11.3798 22.304 25.4825
Pd 9.17953 22.8841 19.2924
Pd 12.5625 5.98773 7.54987
Pd 9.61777 5.5684 11.4432
Pd 11.8845 4.68603 9.85073
Pd 9.63888 5.35244 14.1736
Pd 11.8029 4.46614 12.6247
Pd 9.71486 5.21287 16.9745
Pd 11.8323 4.31885 15.4455
Pd 9.83012 5.129 19.7999
Pd 11.9144 4.22255 18.2747
Pd 10.0132 5.18574 22.5179
Pd 12.0442 4.21081 21.0354
Pd 14.8094 10.2113 4.86882
Au 14.9958 5.82539 6.37092
Au 12.6088 8.26055 8.88123
Pd 12.8063 10.56 10.3007
Au 11.9516 6.91445 11.3069
Pd 15.1558 8.10942 7.97597
Au 9.78309 7.82697 12.8648
Pd 10.0876 10.2016 14.2975
Au 12.019 6.72837 14.1219
Pd 12.2077 9.25426 12.7511
Au 9.8734 7.63184 15.6481
Pd 10.1546 9.97383 17.1062
Au 12.107 6.59413 16.941
Pd 12.2927 9.08476 15.5748
Au 9.97253 7.50026 18.4657
Pd 10.2518 9.86569 19.9508
Au 12.2203 6.51552 19.7921
Pd 12.3805 8.94871 18.4145
Au 10.1224 7.47844 21.3024
Pd 13.4692 10.067 23.6206
Au 11.0648 8.71474 23.6746
Pd 12.4631 8.8836 21.2786
Pd 14.553 14.498 3.09137
Au 16.2013 12.3784 3.79954
Au 15.0389 12.5839 6.29566
Pd 13.9845 12.8082 8.89949
Au 15.3832 10.5397 9.55865
Pd 16.2622 14.8053 5.19862
Au 13.0696 12.8959 11.6769
Pd 10.9515 13.8024 13.2463
Au 12.4927 11.6216 14.1615
Pd 15.6527 12.9728 11.0802
Au 10.3929 12.5865 15.7453
Pd 10.3964 14.7219 17.4848
Au 12.5509 11.4288 17.0282
Pd 12.7482 13.9854 15.693
Au 10.3765 12.2903 18.6046
Pd 11.4232 13.5901 21.0158
Au 12.6079 11.3144 19.9025
Pd 12.7631 13.7703 18.5333
Au 13.665 12.539 22.2961
Pd 13.9155 14.3959 25.6679
Au 15.1354 12.0225 24.6468
Pd 15.326 14.4846 23.3364
Pd 13.1282 16.8108 3.59511
Au 15.9065 16.8904 3.17434
Au 13.4833 14.7607 5.52296
Pd 12.5076 14.9944 8.10213
Au 15.2915 15.0514 7.78269
Pd 14.8725 17.1544 5.70016
Au 11.5424 15.111 10.7652
Pd 11.1268 16.956 12.6937
Au 13.2547 15.1606 13.185
Pd 14.2216 15.2567 10.3815
Au 10.744 15.7742 15.0686
Pd 10.3198 17.4184 17.2102
Au 12.8605 16.3051 17.3191
Pd 13.0984 17.2674 14.8619
Au 11.5622 16.0347 19.6914
Pd 12.7845 17.4866 21.951
Au 13.8405 15.0321 20.9618
Pd 14.1166 17.4576 19.6537
Au 12.4947 14.9232 23.3833
Pd 12.842 16.8783 26.5165
Au 15.6817 16.2663 26.5934
Pd 14.2743 16.8349 24.3223
Pd 13.0179 21.4611 4.5664
Au 14.4652 19.1982 3.82625
Au 12.0685 17.0916 6.07574
Pd 12.4243 19.7976 8.94103
Au 13.9027 17.3934 8.20517
Pd 13.4012 19.4624 6.36055
Au 12.7541 17.6493 10.6351
Pd 12.1803 19.4886 12.8263
Au 14.3717 17.7026 12.6241
Pd 14.0862 20.1202 11.0795
Au 10.5833 18.656 14.8094
Pd 10.2858 20.2801 17.0767
Au 12.6903 19.1396 16.6619
Pd 14.9676 22.6407 15.2649
Au 11.461 18.6899 19.2525
Pd 12.3168 20.2425 21.3212
Au 14.8268 19.6231 21.7039
Pd 11.5416 21.6733 19.1572
Au 13.4624 19.4079 24.0234
Pd 15.4284 21.4651 23.7601
Au 14.7548 18.8361 26.4109
Pd 16.7036 21.6858 21.4061
Pd 11.6083 23.6137 5.25471
Au 14.3549 23.8859 4.98626
Au 11.9444 21.7737 7.14554
Pd 11.1843 23.7235 9.24327
Au 13.6141 22.3386 9.39192
Pd 13.138 24.1481 7.2976
Au 11.6128 21.6404 11.0502
Pd 13.4764 27.7776 15.3239
Au 10.37 25.3254 11.5021
Pd 12.7072 24.2584 11.4529
Au 14.2679 19.9407 14.5236
Pd 8.10162 24.2554 17.0269
Au 7.91833 21.5666 17.235
Pd 12.4767 23.8347 15.2433
Au 10.5647 23.0401 16.9498
Pd 6.94316 24.2018 19.4576
Au 12.2154 23.6202 20.8934
Pd 11.7745 26.1903 16.5309
Au 12.8633 22.0643 23.151
Pd 13.1628 25.6351 22.4566
Au 13.4671 24.074 24.7264
Pd 11.9751 26.1672 20.0351
Pd 14.2904 4.03894 8.32953
Pd 14.0341 3.7013 11.1047
Pd 16.4138 3.57773 9.88376
Pd 13.963 3.47197 13.9403
Pd 16.2998 3.64522 12.6173
Pd 14.0189 3.34218 16.7921
Pd 16.3035 3.66592 15.3773
Pd 14.1407 3.30219 19.5841
Pd 16.3968 3.65884 18.1563
Pd 12.3047 6.49822 22.5781
Pd 16.5162 3.75159 20.916
Pd 16.3276 8.03184 5.47441
Au 16.5316 5.82952 8.50343
Au 14.1679 6.13919 9.79704
Pd 14.3727 8.38476 11.2168
Au 16.5326 5.92279 11.2566
Pd 16.833 8.32339 10.0607
Au 14.194 5.84389 12.6345
Pd 14.4424 8.15936 14.0745
Au 16.5913 5.99674 14.0409
Pd 16.7809 8.40431 12.7627
Au 14.2602 5.65564 15.4503
Pd 14.5381 7.99784 16.8992
Au 16.6715 5.99148 16.8317
Pd 16.8744 8.40263 15.5194
Au 14.3474 5.56784 18.2884
Pd 14.6063 7.87743 19.7645
Au 16.7308 6.01161 19.6518
Pd 16.9297 8.38315 18.3037
Au 14.4345 5.44656 21.1885
Pd 14.6701 7.80422 22.5522
Au 16.8208 6.11432 22.4143
Pd 16.9281 8.53371 21.0942
Pd 17.2632 14.5985 2.68563
Au 17.7308 10.2121 4.45225
Au 16.5326 10.3572 6.95304
Pd 16.7505 12.7739 8.50663
Au 17.1793 10.8057 11.545
Pd 17.9157 12.5895 5.97119
Au 14.6474 10.6763 12.6029
Pd 14.9443 12.9942 14.0429
Au 17.0827 10.8292 14.2328
Pd 17.5216 13.234 12.9882
Au 14.7139 10.4737 15.5019
Pd 14.9502 12.8032 16.9566
Au 17.1419 10.79 16.9911
Pd 17.3253 13.1996 15.6873
Au 14.7782 10.3222 18.3586
Pd 14.9659 12.7402 19.8066
Au 17.0821 11.0053 19.745
Pd 17.2348 13.5076 18.377
Au 14.8176 10.243 21.2292
Pd 16.8144 13.9106 25.6031
Au 16.3095 9.70842 23.5566
Pd 16.4478 12.1847 22.224
Pd 17.2428 19.2865 3.60736
Au 18.7019 17.0267 3.00094
Au 17.574 17.2573 5.35139
Pd 16.8438 17.4302 7.94026
Au 18.0511 14.9636 7.42826
Pd 18.5585 19.4877 7.30866
Au 16.9811 15.1751 10.1129
Pd 15.84 15.327 12.6611
Au 17.8943 15.5008 14.4337
Pd 17.733 17.1641 12.1534
Au 15.151 15.2748 15.5712
Pd 15.237 17.905 17.1991
Au 17.3784 16.1073 17.0555
Pd 18.5306 17.9548 15.3226
Au 15.1275 15.2222 18.4196
Pd 15.6139 16.9963 21.9977
Au 16.6123 14.668 20.8623
Pd 16.901 17.1074 19.5359
Au 17.1265 16.3314 24.3401
Pd 17.6504 18.2182 26.3422
Au 18.6552 15.6921 26.5248
Pd 19.9781 15.8302 24.142
Pd 15.764 21.6113 4.31893
Au 18.3061 21.2785 5.21802
Au 16.1697 19.5769 6.02627
Pd 15.2205 19.7555 8.53445
Au 18.1175 19.0578 10.0448
Pd 17.1945 21.6416 7.72002
Au 15.6975 17.6618 10.3252
Pd 16.4085 19.5202 12.2909
Au 15.5744 20.6244 17.0019
Pd 16.3117 22.3015 12.9799
Au 16.042 17.6503 14.6077
Pd 13.1635 21.8744 17.0556
Au 16.2532 19.656 19.4777
Pd 15.2541 23.8203 11.0679
Au 13.7218 19.9879 18.9555
Pd 14.435 22.3137 19.8649
Au 17.5958 19.0261 21.7322
Pd 12.6359 24.2644 18.1531
Au 16.2164 18.8806 24.1228
Pd 16.7341 20.7852 26.0437
Au 20.4751 17.7038 26.1397
Pd 15.8977 23.3471 25.5947
Pd 15.7784 23.6644 8.51439
Au 16.8718 23.6172 5.90861
Au 14.6638 21.8897 6.76325
Pd 13.8258 25.4541 9.34979
Au 16.2969 21.4242 10.2657
Pd 17.3064 27.5474 11.9066
Au 13.5136 22.0929 12.95
Pd 12.2102 25.9482 13.627
Au 16.4126 26.04 9.8463
Pd 14.4825 26.4643 11.6753
Au 14.5515 24.5929 13.5379
Pd 15.5821 27.0219 13.9297
Au 17.1285 25.0189 12.6064
Pd 16.0256 27.5869 16.409
Au 14.4004 25.502 16.0363
Pd 10.1049 25.2669 18.4233
Au 14.8845 23.6679 22.2151
Pd 13.7656 26.9631 18.1147
Au 17.3287 23.5919 23.3826
Pd 15.6055 25.5425 23.9211
Au 18.6093 22.7758 25.5639
Pd 15.7761 26.5075 21.4623
Pd 18.678 4.34288 8.34923
Pd 18.6886 4.19998 11.0953
Pd 21.0046 4.98059 9.56836
Pd 18.6434 4.14324 13.8553
Pd 21.0027 4.76187 12.2927
Pd 18.6815 4.07938 16.624
Pd 21.0136 4.5647 15.065
Pd 18.7565 4.09144 19.3938
Pd 21.0501 4.44969 17.8519
Pd 18.9056 4.5512 21.9901
Pd 21.0628 5.19323 20.4225
Pd 17.9876 8.10211 7.63804
Au 17.7915 5.82008 6.18194
Au 18.9067 6.59788 9.77325
Pd 19.1941 8.98742 11.3009
Au 21.268 7.23292 11.0387
Pd 20.4308 8.76257 8.82955
Au 18.9198 6.52947 12.5534
Pd 19.2107 8.89696 14.0763
Au 21.3261 6.99867 13.8418
Pd 21.5277 9.54804 12.629
Au 19.0079 6.44699 15.3414
Pd 19.3096 8.78496 16.8544
Au 21.4616 6.77103 16.6568
Pd 21.7203 9.19181 15.4537
Au 19.0932 6.39084 18.1372
Pd 19.1778 9.35087 19.5184
Au 21.2665 7.64268 19.243
Pd 21.4279 10.1593 17.9775
Au 19.0349 6.88994 20.8236
Pd 18.5846 8.05755 23.2853
Au 20.6944 6.3753 22.8819
Pd 20.7848 8.82858 21.7208
Pd 19.1441 12.4371 3.63428
Au 19.4045 10.2781 6.65924
Au 18.2716 10.5249 9.10204
Pd 18.5926 12.9807 10.5325
Au 20.6917 11.1948 10.3404
Pd 19.6971 12.7041 8.07933
Au 19.5309 11.3741 12.8225
Pd 19.9779 13.5697 14.3498
Au 22.1189 11.5739 14.3152
Pd 21.5893 13.0802 12.1319
Au 19.5735 11.1893 15.604
Pd 19.5213 14.3927 16.8456
Au 21.6606 12.6656 16.7299
Pd 22.6467 14.2259 14.5587
Au 19.352 11.8837 18.2217
Pd 18.7671 12.9762 20.7254
Au 20.9165 11.3162 20.4693
Pd 21.1681 13.7693 19.1696
Au 18.6227 10.4904 22.0585
Pd 17.9939 11.5904 24.4748
Au 20.3055 9.97499 24.2245
Pd 20.3611 12.4196 22.9793
Pd 19.7265 19.0435 4.90866
Au 21.5031 14.2176 4.0092
Au 18.9296 14.8992 4.64483
Pd 19.167 16.5017 9.46048
Au 20.894 14.3763 9.86911
Pd 19.695 17.1751 6.88259
Au 19.4107 15.0742 12.0666
Pd 19.218 19.1902 13.1902
Au 22.1349 15.7643 12.2935
Pd 20.4148 17.634 11.4994
Au 20.5192 16.2407 14.5069
Pd 17.9673 19.1643 17.5758
Au 20.0275 17.0837 17.3377
Pd 21.1431 18.802 15.2564
Au 18.9989 15.3957 19.3666
Pd 18.4303 16.4664 21.8973
Au 20.6022 14.835 21.654
Pd 21.6364 16.4448 19.5575
Au 18.1506 14.0272 23.2255
Pd 21.4363 15.2159 26.275
Au 19.7204 13.3814 25.46
Pd 21.0924 17.5117 22.1921
Pd 19.3956 22.9993 6.93991
Au 20.9531 20.7793 6.92355
Au 20.6949 18.8357 8.83572
Pd 18.8303 22.8013 13.89
Au 18.523 21.223 11.7594
Pd 20.4209 23.055 11.5296
Au 16.9615 20.2786 14.7247
Pd 17.4596 22.5648 16.1618
Au 22.6783 18.8606 12.9614
Pd 21.0839 21.0837 13.4768
Au 19.3323 20.7021 15.6297
Pd 19.602 22.2582 17.8306
Au 20.6543 19.7846 17.9092
Pd 23.6251 19.7159 15.4778
Au 19.5098 18.1083 19.8977
Pd 17.0282 22.1452 18.7777
Au 20.2796 20.0759 22.0711
Pd 18.8388 20.6808 19.8878
Au 19.0688 18.3689 23.9641
Pd 19.5028 20.2365 25.8478
Au 21.7181 19.379 24.281
Pd 18.1394 20.9409 23.6594
Pd 17.9389 23.5699 10.3156
Au 23.0952 23.258 11.6237
Au 19.4527 21.502 9.17484
Pd 20.6297 26.7848 15.3584
Au 20.3884 24.2158 9.10029
Pd 19.0172 25.9535 10.6779
Au 15.4046 25.6465 6.97579
Pd 18.023 25.023 8.00799
Au 19.6774 25.2282 13.3351
Pd 18.524 26.8955 17.0097
Au 20.1623 27.5885 12.5726
Pd 18.1757 27.2783 14.3951
Au 23.2089 20.8187 18.106
Pd 20.8312 25.8719 17.9769
Au 15.3715 23.8431 17.7368
Pd 14.3696 25.0426 19.9611
Au 17.1058 24.2955 20.5171
Pd 17.0517 25.073 15.3952
Au 19.9296 24.4293 23.7501
Pd 18.1403 25.9056 22.4029
Au 20.8012 21.9171 24.045
Pd 18.09 24.5303 17.9531
Pd 20.1765 6.44734 7.35879
Pd 23.3526 5.62136 10.833
Pd 21.6013 8.58193 6.40827
Pd 23.3312 5.19327 13.5106
Pd 25.5923 6.25517 12.2654
Pd 23.3727 4.85726 16.3163
Pd 26.3717 11.7903 16.6574
Pd 23.2231 5.86703 18.8105
Pd 25.6063 5.33158 14.8502
Pd 22.8662 7.02492 21.3625
Pd 24.9973 7.70941 19.7729
Pd 19.1497 7.98274 5.24944
Au 20.5615 10.0942 4.28438
Au 22.5734 7.05447 8.59246
Pd 22.781 9.42477 10.1476
Au 24.8704 7.75737 9.98142
Pd 23.9871 9.23145 7.75377
Au 23.5977 7.85796 12.4149
Pd 24.2897 9.66535 14.3042
Au 25.9663 9.2044 12.0452
Pd 25.2585 10.5875 9.85869
Au 23.8144 7.24639 15.1905
Pd 26.8336 10.515 14.3224
Au 25.3936 6.48841 17.2711
Pd 26.3263 12.0211 12.143
Au 23.497 8.38633 17.6756
Pd 23.7839 10.8801 16.6135
Au 26.3715 7.78026 14.2739
Pd 24.288 13.588 16.8258
Au 23.0675 9.53779 20.1916
Pd 22.4123 8.2995 23.766
Au 24.6156 8.90762 22.285
Pd 25.8636 9.05674 16.508
Pd 20.9544 12.2949 5.69847
Au 23.0852 10.6429 5.52578
Au 21.9224 10.9346 7.90831
Pd 23.16 12.3777 9.97008
Au 23.6022 13.2693 5.41069
Pd 20.6363 14.7939 6.57358
Au 23.8059 11.0573 12.1238
Pd 24.2303 13.8538 12.253
Au 24.621 11.9098 7.59161
Pd 25.6675 13.3588 9.92987
Au 24.8048 12.3496 14.4451
Pd 22.1308 15.3622 17.0027
Au 27.3216 13.249 14.4584
Pd 25.2261 15.0687 14.6196
Au 23.3182 12.0293 19.003
Pd 22.7867 13.2003 21.4289
Au 25.4324 10.249 18.8457
Pd 25.883 12.9845 19.0334
Au 22.5329 10.7577 22.6319
Pd 22.0627 11.8733 25.0609
Au 24.139 10.1855 24.573
Pd 24.883 11.426 21.251
Pd 22.1126 18.3579 6.47132
Au 21.001 16.7518 4.51274
Au 22.5749 13.6791 7.79568
Pd 21.8313 16.4283 8.38643
Au 25.0391 14.7122 7.67208
Pd 23.0995 15.8433 6.03932
Au 23.6074 15.1913 9.99974
Pd 26.7082 14.8059 12.3244
Au 27.7237 16.0273 14.6451
Pd 26.0499 16.09 10.0928
Au 23.1145 16.8994 14.869
Pd 24.7676 16.25 17.1453
Au 26.8808 14.4909 16.8449
Pd 25.5864 17.7572 15.036
Au 23.7973 14.7426 19.2705
Pd 23.1969 15.8715 21.7177
Au 25.4109 14.1553 21.4603
Pd 26.371 15.6773 19.2891
Au 22.2183 14.263 23.9055
Pd 22.5593 16.8729 24.3917
Au 24.375 12.6633 23.6322
Pd 24.7098 15.3704 23.7651
Pd 22.0728 22.1058 9.31174
Au 23.2402 19.7801 8.52452
Au 21.111 20.2575 11.0181
Pd 23.7498 21.5935 13.6253
Au 24.3791 17.3049 8.16098
Pd 23.7505 20.6413 11.0802
Au 22.9037 17.8945 10.4411
Pd 25.3588 19.4894 13.0662
Au 27.1072 17.5217 12.4901
Pd 25.419 18.6104 10.4874
Au 27.6674 19.8239 17.3908
Pd 25.1975 18.9745 17.5346
Au 27.3516 17.197 17.121
Pd 24.6183 16.7433 12.4324
Au 22.6693 18.0178 17.4789
Pd 21.3106 21.7037 20.0204
Au 25.8108 16.8239 21.7105
Pd 24.2538 17.4189 19.6483
Au 22.2003 19.1239 20.1922
Pd 22.8463 20.9738 22.1869
Au 23.7624 18.431 22.4101
Pd 26.7971 18.3424 19.5551
Pd 21.5416 25.4468 11.2855
Au 22.4492 26.1852 13.5931
Au 21.7319 23.6072 13.9801
Pd 22.0259 23.3451 17.9967
Au 24.269 24.2281 13.9526
Pd 24.2028 22.574 16.1027
Au 19.942 24.2505 15.9915
Pd 24.4854 24.1777 18.1149
Au 26.0819 20.7024 15.4546
Pd 22.7139 25.0183 16.087
Au 27.9087 18.7993 14.8606
Pd 25.7165 21.6045 18.151
Au 24.8127 20.0394 20.2698
Pd 21.7336 21.7138 15.9651
Au 20.0105 24.1108 19.7945
Pd 16.2999 26.3457 18.6845
Au 21.8945 23.5182 21.99
Pd 23.8172 22.5863 20.1044
Au 18.7367 26.5214 19.7937
Pd 19.279 22.6454 21.8036
Au 20.6845 25.9039 21.5892
Pd 22.6071 25.0387 19.8928
