665
Atoms. Timestep: 21143
Pd 17.5012 14.338 10.2544
Pd 11.3288 14.5285 17.2181
Pd 20.6037 14.3414 19.2489
Pd 23.1826 9.74301 18.6897
Pd 20.7661 9.4824 5.15565
Au 21.796 23.9333 20.1554
Au 19.8539 4.22231 11.5629
Pd 10.5258 23.6397 15.8487
Au 12.9724 26.2207 18.6103
Pd 14.4042 18.0521 22.7668
Au 10.8771 6.99086 11.7944
Pd 5.42269 11.8547 6.98573
Au 28.104 19.4507 19.4279
Pd 23.3303 22.4886 12.976
Au 15.4036 22.7497 27.2837
Pd 16.1808 14.0342 3.8952
Au 9.78488 8.72853 13.8233
Au 21.7118 18.9862 10.3827
Pd 27.6388 14.4114 17.4102
Au 18.7669 24.923 12.8697
Pd 18.2761 9.94561 9.32767
Au 21.2716 17.5223 3.63959
Pd 14.7511 15.3176 23.3552
Au 16.0939 7.90934 6.52853
Pd 11.9086 9.62676 12.1366
Au 17.4937 3.20664 12.6977
Pd 10.0141 11.6324 5.42789
Au 17.8776 14.59 19.3894
Au 16.4021 9.82105 26.7238
Pd 20.1705 17.0627 15.0867
Au 16.3375 15.6859 15.4038
Pd 7.63714 12.576 11.8025
Au 13.5084 6.22698 12.6616
Pd 23.2969 18.5971 24.3691
Au 12.2866 4.98497 17.9059
Pd 13.2241 16.132 5.50002
Au 19.6118 20.7677 22.5019
Pd 13.3329 22.6675 23.2216
Au 5.75127 20.0698 11.3527
Au 20.6436 25.4946 15.0149
Pd 18.5648 12.4488 8.33497
Au 23.5743 13.678 6.92931
Pd 18.1638 7.45648 10.5698
Au 16.9607 4.39322 17.817
Pd 24.0717 12.3244 21.8587
Au 11.9078 11.7811 3.52552
Pd 12.0051 14.1313 10.1083
Au 22.1663 5.00701 10.6246
Pd 12.0112 4.39679 11.3208
Au 24.0316 18.1836 21.6571
Au 27.8392 15.5092 13.603
Pd 19.9922 21.4901 26.6813
Au 20.5387 14.348 14.6912
Pd 4.46889 13.4141 17.7001
Au 12.2228 18.126 21.0009
Pd 8.32903 15.3558 25.7828
Au 8.40141 16.1154 23.0045
Pd 20.7109 11.3733 18.4665
Au 23.9305 20.7485 22.8787
Pd 12.9936 20.5945 8.59289
Pd 23.2338 7.13663 11.7209
Pd 19.2934 16.7196 19.1852
Pd 10.1919 7.79211 22.2013
Pd 25.2792 18.5958 13.6052
Pd 14.3828 19.0349 25.3677
Pd 12.0811 18.074 0.688499
Pd 19.3209 18.0304 22.9662
Pd 3.27658 21.2565 16.1354
Pd 10.5688 5.95583 19.9185
Pd 13.1376 13.0145 18.653
Pd 5.70935 12.7258 20.0841
Pd 18.2507 11.1001 13.7032
Au 26.1912 19.7101 11.2378
Au 3.73124 15.9911 17.5963
Pd 23.4586 20.3225 20.0492
Au 16.6942 7.75891 24.8948
Pd 16.0884 9.62739 4.47009
Au 4.00597 13.0981 8.88821
Pd 12.4975 19.4193 18.5942
Au 19.9507 15.5868 24.3644
Pd 14.4753 11.7983 4.42414
Au 13.5539 9.71773 16.0076
Pd 14.8483 22.3935 5.62147
Au 5.24012 15.8969 12.9795
Pd 10.4482 9.18053 16.5503
Au 4.68678 8.30438 11.2131
Pd 8.50317 19.8466 7.59987
Au 10.5023 16.0224 0.957592
Pd 15.1247 11.4873 17.3973
Au 6.49363 21.4061 6.96154
Pd 12.4947 18.0536 7.4646
Au 12.9972 14.1839 24.9938
Pd 22.6238 23.469 15.4194
Pd 4.00316 11.9849 15.4197
Au 10.9062 14.2948 26.9067
Au 14.8666 18.9391 20.1343
Pd 11.9884 24.6612 11.7073
Au 14.5937 5.02985 21.6889
Pd 22.014 14.2105 21.4455
Au 20.4778 6.97341 11.9726
Pd 14.7322 12.3477 23.111
Au 6.89071 8.64255 18.02
Pd 19.9689 15.2309 3.3854
Au 19.8672 22.8172 24.3104
Pd 22.8238 9.139 7.49501
Au 9.34226 23.6404 19.9168
Pd 19.9682 7.09324 17.3107
Au 20.2285 13.7712 26.4613
Pd 16.7345 9.58116 19.8592
Au 9.17137 22.0849 6.04308
Pd 19.8327 6.66698 14.6558
Au 21.0955 12.9047 7.81796
Pd 6.99123 9.7905 7.34364
Au 27.5789 14.9375 20.5
Pd 22.8228 18.0285 7.96487
Pd 13.7998 7.18728 7.82801
Au 13.3432 7.97398 10.4485
Au 20.1232 16.2965 27.2018
Pd 11.6118 13.9279 14.529
Au 3.9714 20.8474 13.4252
Pd 22.8315 13.8256 9.66295
Au 8.07311 9.66485 22.4796
Pd 17.2428 21.2024 15.5862
Au 18.5724 10.3368 3.81893
Pd 10.4205 6.50747 15.8319
Au 15.7868 6.80981 11.4508
Pd 21.525 11.4451 21.1249
Au 23.2334 10.3883 26.148
Pd 20.0934 17.9947 8.30739
Au 19.6224 20.587 9.68614
Pd 13.6483 9.71163 3.1481
Au 11.5663 15.4334 7.645
Pd 10.5718 21.2797 11.0588
Au 11.4662 25.5073 14.1645
Pd 9.82724 23.7258 10.3292
Au 7.31254 11.4377 4.90193
Pd 16.0895 12.3567 12.3461
Pd 11.6593 13.8012 5.42902
Au 24.1366 15.3855 16.5386
Au 8.61666 19.7061 12.5532
Pd 5.09618 19.5985 15.524
Au 20.0415 5.876 9.30154
Pd 23.7575 9.34288 10.1345
Au 18.965 20.2257 6.98992
Pd 20.3874 11.7102 15.4663
Au 25.94 20.3434 21.0246
Pd 11.6434 23.9091 18.5833
Au 12.9996 24.4639 16.2856
Pd 15.1735 18.0819 6.99486
Au 14.9767 21.5717 10.2698
Pd 5.93261 17.7494 17.3365
Au 14.9141 17.5474 28.2206
Pd 14.92 14.1155 10.1364
Au 4.35522 10.0169 13.3067
Pd 6.06411 19.3763 8.76225
Au 12.9001 11.1917 20.7865
Pd 19.4893 15.6128 21.6871
Au 18.769 9.27565 25.3714
Pd 7.06704 16.52 15.1398
Pd 21.6435 18.8379 13.5299
Au 9.71662 4.56797 17.5509
Au 8.33658 18.2938 10.1306
Pd 14.8626 25.871 20.5678
Au 5.29231 21.9967 20.2793
Pd 24.738 16.4162 23.9812
Au 14.1249 11.4548 25.7274
Pd 16.5333 10.7629 24.3224
Au 17.3712 21.9443 23.1581
Pd 12.3494 19.2939 15.7996
Au 15.3193 23.6162 24.7893
Pd 6.31596 18.4133 13.3907
Au 12.3641 21.775 4.43212
Pd 20.9807 21.3903 20.0652
Au 17.1062 23.8696 19.8827
Pd 14.0949 15.7569 8.21211
Au 27.1477 16.519 22.7583
Pd 12.832 21.991 14.6923
Au 9.28065 14.9382 18.8955
Pd 21.6454 19.1321 16.1694
Au 10.2572 12.1428 16.8559
Pd 13.9469 24.2089 13.695
Pd 17.4574 7.07315 18.4324
Pd 14.5433 18.201 4.3532
Pd 13.1141 15.8967 27.1355
Pd 14.7735 20.7157 3.50771
Pd 17.3537 25.8782 21.5281
Pd 3.40345 13.8145 13.1795
Pd 12.156 15.726 22.4551
Pd 6.94037 23.2688 18.7125
Pd 18.9477 14.4545 12.5136
Pd 16.8274 18.8262 2.93269
Pd 16.1631 11.7525 9.47884
Pd 18.4018 17.4026 25.4847
Au 27.2723 12.2909 21.3727
Au 5.33583 14.2952 22.4367
Pd 9.75619 17.3861 7.57691
Au 16.9835 18.4004 15.9052
Pd 14.7505 20.2463 27.825
Au 17.3704 8.23697 13.4003
Pd 5.58176 12.3421 13.3495
Au 12.6366 10.4234 23.5514
Pd 19.4442 25.5909 19.9469
Au 15.2226 13.1145 14.8505
Pd 18.623 12.9466 3.29877
Au 7.16494 24.2305 10.6673
Pd 19.2808 18.3312 17.2356
Au 10.7151 22.9592 13.264
Pd 26.508 16.7592 15.9849
Au 24.2277 9.10052 24.1111
Pd 14.594 4.29458 19.1174
Au 17.8156 23.0544 25.9814
Pd 8.7979 25.7513 15.0569
Au 17.0094 23.4503 11.4447
Pd 17.8129 14.9216 25.9282
Pd 7.3993 14.7308 20.7864
Au 6.16971 11.6891 22.5575
Au 8.24233 22.4775 12.2788
Pd 14.4892 16.3494 20.8833
Au 8.94164 12.806 25.9259
Pd 18.101 13.8785 28.2198
Au 12.8214 16.9929 24.7325
Pd 15.3112 11.9278 20.0165
Au 15.6544 5.16304 14.0672
Pd 14.7463 19.9877 14.7866
Au 19.3345 23.5478 21.6618
Pd 25.0799 13.0088 17.3496
Au 4.55122 22.9836 17.6537
Pd 6.44943 10.2035 11.4355
Au 18.5498 7.98889 5.20605
Pd 19.2957 19.5634 14.7766
Au 21.5418 16.5545 17.4101
Pd 10.9678 12.863 7.79344
Au 11.1185 12.2376 1.05851
Pd 9.59375 14.3476 12.0856
Au 13.9859 5.37462 9.79216
Pd 13.2259 5.80049 15.4662
Pd 18.4663 12.0613 11.1214
Au 6.41603 18.6545 6.11374
Au 10.9316 2.75446 13.2439
Pd 12.6026 18.5544 27.1606
Au 5.1528 16.2442 6.27986
Pd 12.2689 17.0086 9.87456
Au 26.6179 17.062 11.7379
Pd 27.3337 12.1394 18.7175
Au 25.5837 10.3947 17.3549
Pd 21.3557 14.039 5.31809
Au 4.46159 15.9803 8.87448
Pd 11.9704 12.8915 22.817
Au 8.9327 22.7919 22.8363
Pd 13.5405 14.1767 3.45861
Au 18.6805 7.45041 20.7501
Pd 9.19129 7.24765 17.9855
Au 25.8556 18.8477 23.466
Pd 17.772 24.5126 23.751
Au 10.9813 26.2276 16.7386
Pd 6.4912 12.1329 9.50224
Au 7.5824 10.9783 24.6997
Pd 16.6628 18.6084 23.9675
Pd 9.14585 10.2799 18.9905
Au 29.0451 17.1334 20.879
Au 20.679 11.1599 25.8642
Pd 11.7951 15.6967 12.3669
Au 14.3291 16.471 11.3812
Pd 9.69076 15.7122 14.3711
Au 2.53841 14.376 15.7023
Pd 6.66627 12.5428 15.8073
Au 13.839 25.298 23.0452
Pd 6.19848 13.8694 5.40286
Au 20.852 8.5095 9.63546
Pd 15.3811 25.4994 15.744
Au 2.28003 16.2557 13.6396
Pd 16.9675 23.6576 14.4475
Au 11.6387 3.53135 15.7914
Pd 23.404 14.1692 23.6778
Au 5.94928 15.8989 3.69904
Pd 9.92589 14.1673 21.6378
Au 20.2636 14.0606 10.2505
Pd 8.85086 13.9013 4.95069
Au 18.8892 15.3027 8.04452
Pd 15.14 4.06633 11.7085
Pd 9.91339 16.6896 20.8672
Au 11.4277 20.1878 13.3275
Au 17.8416 10.036 6.70198
Pd 16.8943 5.05144 20.3598
Au 21.8028 5.4029 15.9338
Pd 16.2531 6.35084 8.75452
Au 19.5933 23.0226 10.8307
Pd 18.2984 21.4541 20.2038
Au 19.4275 10.9008 23.3647
Pd 9.97889 18.263 14.5441
Au 16.679 17.1888 0.804373
Pd 17.4074 6.21681 15.8328
Au 17.9233 26.1031 15.0964
Pd 11.0631 17.1341 18.2901
Au 13.7272 8.86278 5.6872
Pd 14.451 8.87592 12.7991
Au 23.3501 7.32847 20.0141
Pd 9.88509 15.9628 9.9447
Au 21.1322 6.29377 21.1354
Pd 17.5158 22.2427 9.02715
Au 23.5887 20.4636 14.742
Pd 17.5866 16.6652 28.0478
Pd 15.2947 16.2633 2.8732
Pd 16.4715 14.1743 21.5921
Pd 23.2819 11.4525 8.60287
Pd 18.6849 20.1187 24.9669
Pd 17.3476 20.6946 11.1504
Pd 17.1222 16.9942 20.8301
Pd 12.5831 19.4795 10.9799
Pd 19.299 18.8756 11.9394
Pd 16.9149 12.1428 5.47664
Pd 17.1174 19.5361 21.6437
Pd 26.1648 14.0216 15.174
Pd 9.58057 12.0681 23.3852
Au 23.6168 20.0422 11.9329
Au 15.8896 15.8008 5.90953
Pd 17.5403 8.91452 22.605
Au 25.8188 11.0392 11.7181
Pd 10.6495 12.5817 19.5948
Au 4.80314 15.2211 19.9447
Pd 21.5539 15.5132 7.73863
Au 16.5868 19.8887 5.39223
Pd 15.6734 20.6285 7.83048
Au 19.1441 20.8831 17.5082
Pd 17.9261 13.5434 14.7407
Au 15.899 10.341 14.6803
Pd 19.0708 4.96907 21.9579
Au 21.6484 16.9322 20.424
Pd 24.0709 17.984 15.977
Au 8.91683 6.23558 9.93285
Pd 13.5799 12.4729 8.56838
Au 27.4577 12.4962 13.3677
Pd 14.992 20.6714 23.041
Au 25.7811 21.3369 13.3894
Pd 25.2618 12.8826 9.87681
Pd 11.8146 16.6153 15.7086
Au 9.32363 4.49885 11.9417
Au 6.30158 14.2886 7.97681
Pd 17.7338 15.0686 1.91489
Au 13.7434 13.8216 21.1962
Pd 18.1089 16.9106 13.5609
Au 14.1492 16.3739 0.403427
Pd 11.9693 15.1776 19.8142
Au 7.3324 18.1566 3.51134
Pd 15.9555 12.2714 27.6401
Au 22.3943 11.0337 23.6437
Pd 28.0352 19.1248 22.1078
Au 28.9722 13.757 15.2012
Pd 10.2907 10.2801 7.62484
Au 16.6905 18.8478 26.6949
Pd 9.29527 13.0062 9.79462
Au 6.6244 10.1681 20.2301
Pd 12.0248 25.531 21.1054
Au 10.0938 20.5767 3.8616
Pd 9.22193 12.5662 14.2314
Au 24.1396 22.6484 20.9951
Pd 3.17855 18.677 17.2662
Pd 15.165 7.64318 15.0489
Au 24.4202 9.23249 12.9827
Au 19.7249 3.95192 14.2102
Pd 16.0682 9.02178 17.2014
Au 7.0853 16.9039 8.20739
Pd 17.6782 16.5845 4.15141
Au 12.8491 17.9638 13.4277
Pd 2.43597 19.0394 14.712
Au 21.4734 8.69998 24.7585
Pd 13.0208 20.7952 21.0871
Au 19.5464 23.3318 18.5974
Pd 11.0371 20.2247 6.53209
Au 15.6342 8.96237 9.09115
Pd 9.17471 4.02953 14.8481
Au 10.3487 21.8996 8.45039
Pd 21.1978 9.40055 16.6134
Au 13.252 6.57687 19.8197
Pd 6.99558 23.7643 21.3743
Au 5.61747 11.0562 17.8796
Pd 10.9164 21.412 19.495
Au 21.6247 21.7814 17.3654
Pd 10.5218 17.9636 11.8018
Pd 5.01344 22.9563 14.8534
Au 17.8317 11.926 19.0324
Au 8.59466 20.4203 24.1571
Pd 20.6591 12.2163 12.7383
Au 16.2794 15.0222 12.6545
Pd 15.1978 10.7763 7.0384
Au 28.2812 16.8497 18.4066
Pd 23.9868 9.16524 15.7107
Au 27.841 18.1932 14.1011
Pd 21.8274 22.3636 22.4008
Au 8.04955 23.2165 14.9709
Pd 7.56135 19.7094 18.3162
Au 6.58445 21.326 22.603
Pd 13.6296 23.5094 20.5794
Au 14.966 19.6619 17.4477
Pd 22.3479 14.3842 12.3344
Au 12.4824 19.7969 23.6015
Pd 20.8351 13.197 23.7238
Au 16.9292 26.2746 18.7367
Pd 19.0492 16.6376 10.4095
Au 19.5962 11.9732 5.76538
Pd 18.8223 9.455 18.1704
Pd 23.277 13.4651 14.7555
Au 13.3964 21.5204 25.7172
Au 7.64573 25.7371 19.7386
Pd 5.94096 17.2613 10.8061
Au 9.75128 19.0487 19.7334
Pd 11.4049 8.00707 6.9473
Au 22.0518 16.5962 23.0264
Pd 12.5548 16.6365 2.82982
Au 28.4211 18.8561 16.6859
Pd 7.47822 17.2134 19.5542
Au 10.5377 17.8055 23.4239
Pd 27.4088 11.8535 16.0866
Au 16.4169 16.7587 18.0808
Pd 12.4056 19.7212 2.71465
Au 19.4818 23.2559 15.7145
Pd 8.17388 21.2999 20.4417
Au 8.78392 16.9942 17.0403
Pd 20.8762 18.1684 25.269
Au 17.3021 3.49051 15.3302
Pd 19.4655 18.9663 20.4512
Au 14.6842 3.82147 16.3787
Pd 24.9647 22.0891 10.899
Pd 5.67228 9.76241 15.595
Pd 8.65357 14.2965 16.276
Pd 7.58483 13.6944 23.6805
Pd 8.10439 20.997 10.0165
Pd 14.5214 7.24866 23.1173
Pd 22.8054 7.45574 17.2995
Pd 10.6456 19.2715 9.21253
Pd 13.9728 11.0036 10.8818
Pd 19.21 10.2338 20.6634
Pd 19.4297 4.55575 16.7414
Pd 11.2716 22.9555 21.5875
Pd 15.6631 7.37909 20.6594
Au 8.35757 8.02025 20.3407
Au 13.3833 13.2523 27.4935
Pd 9.5647 21.0603 14.9941
Au 24.5296 15.5975 21.4087
Pd 9.06678 22.0041 17.6067
Au 10.6659 8.70161 9.76364
Pd 7.34859 14.3745 13.6514
Au 20.9978 23.6207 13.1131
Pd 18.6598 21.9473 13.2532
Au 22.8101 16.4361 5.65913
Pd 13.6129 11.2986 13.6075
Au 19.4247 7.16843 23.5437
Pd 23.2096 15.061 19.0896
Au 12.6166 14.3681 0.914277
Pd 11.2246 5.31681 13.7377
Au 16.5455 16.4741 8.90632
Pd 18.3175 8.7376 15.7586
Au 22.7269 12.999 25.9165
Pd 11.4274 12.0061 25.4455
Au 23.0787 12.4065 19.2239
Pd 23.8372 20.2179 17.4401
Pd 17.2935 22.2301 6.44383
Au 6.36849 24.6762 16.3967
Au 7.51661 20.5984 4.63861
Pd 3.80349 18.2811 12.5376
Au 22.895 7.27189 22.7949
Pd 17.51 19.0383 9.00408
Au 19.0627 17.4673 2.09742
Pd 16.563 21.7744 18.1311
Au 26.2268 19.9944 15.7445
Pd 23.0084 11.456 16.6608
Au 6.71879 6.26843 11.5105
Pd 7.5702 10.4903 13.851
Au 3.8112 18.4464 9.8797
Pd 10.392 14.684 24.2836
Au 14.8793 24.357 18.2999
Pd 14.8427 19.5845 12.0987
Au 14.9827 22.5973 16.0558
Pd 22.3288 15.7759 25.588
Au 21.5213 20.6606 24.5374
Pd 14.3419 17.4819 16.0214
Au 22.3855 7.63282 14.332
Pd 10.1151 9.68417 24.277
Pd 6.10798 19.4841 20.6741
Au 10.4777 10.3849 21.4874
Au 19.2871 18.9761 27.5305
Pd 11.2071 10.8425 14.5865
Au 5.92518 16.9242 21.7849
Pd 24.5804 17.8839 10.0278
Au 25.7566 15.8545 18.5909
Pd 18.4006 14.4002 5.60345
Au 15.6847 13.5899 25.3172
Pd 16.7905 17.7681 11.2956
Au 13.4311 3.56527 13.7469
Pd 20.9116 8.90121 22.1317
Au 11.3348 24.5521 23.6386
Pd 15.512 21.972 13.1212
Au 6.65021 24.7586 13.4115
Pd 13.0118 9.72817 8.43076
Au 6.58492 15.1065 17.8531
Pd 7.73009 19.1622 15.6375
Au 21.6634 24.6443 17.5614
Pd 20.9157 21.007 12.1477
Au 14.991 6.45234 17.5725
Pd 17.8231 17.6877 6.6744
Pd 17.3165 16.0511 23.3794
Au 7.07619 13.4981 2.93021
Au 23.2164 11.7473 11.4698
Pd 15.6055 21.5678 20.6046
Au 10.4481 16.1701 4.99492
Pd 21.909 13.8286 16.995
Au 3.2084 15.9689 11.1661
Pd 12.4928 7.65451 17.3577
Au 8.25485 18.6939 22.0095
Pd 6.18433 16.1345 24.3449
Au 24.9718 22.3446 16.056
Pd 21.1086 21.4196 14.7322
Au 8.29814 17.928 25.0824
Pd 23.4695 9.58688 21.4647
Au 6.70517 8.08893 9.46868
Pd 8.42063 8.34418 11.5555
Au 14.538 24.1946 10.9952
Pd 8.87045 9.27224 5.55012
Au 10.7141 19.5078 25.5994
Pd 10.9853 21.9303 24.3309
Au 18.0376 13.3707 23.7073
Pd 15.2125 14.5892 19.1235
Pd 8.82071 24.7853 17.5148
Au 17.4919 4.73309 10.4223
Au 8.88309 7.89987 7.84886
Pd 8.44789 10.3136 9.53302
Au 22.5901 10.8821 14.0996
Pd 17.1273 19.594 13.445
Au 21.0313 11.8116 3.63293
Pd 18.1117 12.029 26.0819
Au 19.0596 18.9336 4.47759
Pd 19.2786 5.24245 19.2834
Au 16.9496 19.0162 29.2487
Pd 21.9014 9.41749 11.9871
Au 19.3352 12.9872 21.2348
Pd 13.8036 12.0037 1.72098
Au 25.383 10.7762 19.9493
Pd 11.3472 9.40866 4.62486
Au 8.47335 6.33499 13.6337
Pd 11.4116 11.314 9.94796
Au 27.0442 14.2634 11.3845
Pd 22.535 16.1908 14.6038
Au 4.26676 17.1333 15.1801
Pd 24.6357 15.3278 10.9365
Pd 12.2804 8.05966 14.3736
Pd 20.2956 9.30508 14.1353
Pd 16.1265 21.0786 25.391
Pd 10.0446 19.4198 17.1145
Pd 7.93463 8.145 15.5902
Pd 20.6631 16.4967 12.518
Pd 8.18098 16.7444 12.4331
Pd 13.7864 21.8491 18.5472
Pd 15.501 17.5206 13.6389
Pd 19.3006 13.2981 17.2003
Pd 10.3701 20.4102 22.0506
Pd 9.20765 25.0409 12.5527
Au 8.15355 10.5815 16.5236
Au 22.8183 6.93999 9.00607
Pd 15.5402 16.5294 25.6494
Au 15.5837 14.8856 27.8227
Pd 13.9916 14.8203 16.7511
Au 5.43159 22.7302 12.1001
Pd 7.48182 15.0293 10.3446
Au 20.0472 16.5356 5.76236
Pd 17.2825 19.1982 18.8554
Au 11.0753 8.49512 19.5218
Pd 13.826 15.4913 14.1754
Au 18.4631 7.6323 7.88576
Pd 10.8252 14.2769 2.96841
Au 14.1369 9.20747 19.1439
Pd 26.0232 18.5909 18.0007
Au 14.3843 8.98244 25.0505
Pd 15.0254 9.78814 22.1347
Au 8.18043 12.2089 7.33248
Pd 12.0809 7.86397 24.1166
Au 24.8414 11.9388 24.4989
Pd 10.1324 18.0255 2.7737
Pd 21.7031 19.2925 22.0655
Au 19.2909 9.58997 11.7508
Au 4.87463 10.0831 9.08955
Pd 12.7432 8.56389 21.5712
Au 16.374 13.8353 7.72764
Pd 4.93295 20.3245 18.2655
Au 4.43172 17.831 19.543
Pd 15.7478 23.7555 22.1541
Au 12.5708 11.2432 6.24899
Pd 23.7297 22.8427 18.4231
Au 16.081 25.6038 12.9413
Pd 8.00305 23.0972 8.34721
Au 24.0437 20.2951 9.17893
Pd 12.0682 10.6117 18.1584
Au 16.9305 6.16761 22.7912
Pd 8.93838 14.7728 7.62338
Au 19.3283 25.9517 17.3429
Pd 15.3538 14.0784 1.30246
Au 14.9236 23.193 8.18684
Pd 13.6731 16.9532 18.4821
Au 14.7035 18.5622 9.54905
Pd 25.408 13.5411 19.94
Pd 18.0469 5.75827 12.9059
Au 25.8779 10.4255 22.5646
Au 13.6915 20.1177 6.00391
Pd 18.6408 15.7287 16.7087
Au 25.0795 15.8743 13.7095
Pd 20.4267 10.2191 7.65992
Au 10.2354 26.2425 19.332
Pd 7.83285 12.6487 18.3978
Au 14.1948 13.6639 6.24628
Pd 20.9086 11.2997 10.0901
Au 21.9815 16.3509 10.144
Pd 13.0325 22.0555 12.0404
Au 16.5341 9.88379 11.4803
Pd 8.30395 12.1203 21.0219
Au 21.6316 20.5314 7.99765
Pd 11.8665 18.4068 4.84863
Au 23.3254 17.2722 12.2643
Pd 21.4202 19.1281 18.74
Au 6.20272 18.8478 23.6557
Pd 6.68741 21.0522 13.9002
Au 6.28091 8.11593 13.3975
Pd 24.9435 13.3385 12.7221
Pd 12.1764 6.00645 22.1804
Au 13.6941 13.647 12.3417
Au 26.0539 14.0027 22.9433
Pd 12.4968 23.0323 9.61571
Au 8.98321 13.8245 1.07624
Pd 17.1407 11.5484 21.8482
Au 16.3686 11.6545 2.57343
Pd 21.7533 5.5433 18.6501
Au 5.18144 14.0389 11.0687
Pd 11.4159 12.4496 12.3173
Au 24.258 15.7869 8.28641
Pd 21.9229 5.1706 13.276
Au 7.71271 5.68087 16.2988
Pd 26.3614 17.6375 20.5021
Au 22.4273 11.4225 5.942
Pd 17.7458 11.2609 16.4014
Au 5.7582 22.1052 9.48419
Pd 9.17185 18.5857 5.32973
Au 11.5153 6.2089 9.11901
Pd 4.12577 11.5931 11.1636
Au 17.3217 24.1463 17.0759
Pd 25.1941 11.4182 14.6773
Pd 23.7065 17.7261 18.8412
Au 8.53428 15.8109 2.90695
Au 26.0213 21.2619 18.5106
Pd 12.4861 22.6086 6.92467
Au 14.5326 18.6689 1.6156
Pd 16.616 13.6732 17.1466
Au 1.64763 16.8602 16.1088
Pd 20.9893 8.43725 19.4137
Au 11.7099 21.5901 16.9772
Pd 21.2909 18.8655 5.9564
Au 6.59354 21.6049 16.5891
Pd 10.5837 16.8319 26.1361
Au 5.12384 14.5671 15.3489
Pd 9.50078 10.7578 11.9531
Au 20.8971 7.44539 6.99658
Pd 12.9202 12.3434 16.0995
Au 29.109 16.3406 15.8536
Pd 9.22754 11.8969 2.93901
Au 9.39978 25.3368 21.8969
Pd 17.5383 21.1275 27.7726
Au 22.2972 22.0517 10.2361
Pd 7.77548 16.2758 5.63592
