665
Atoms. Timestep: 20657
Pd 24.7313 12.0377 7.2209
Pd 9.41142 19.4075 26.1753
Pd 8.59376 12.3123 8.11736
Pd 10.0689 25.5568 18.4911
Pd 18.5045 17.6738 11.4837
Au 11.0127 27.1707 20.4238
Au 18.4816 7.21289 9.67141
Pd 10.9096 10.2339 19.0852
Au 4.09589 15.3655 12.5616
Pd 9.52866 10.7874 21.4387
Au 7.23365 11.331 22.6904
Pd 18.0261 13.6611 16.3712
Au 24.2214 7.55408 8.96989
Pd 19.6915 22.6827 21.5383
Au 7.94718 14.9694 8.72841
Pd 19.6098 5.1831 19.292
Au 13.6384 8.80197 23.1354
Au 22.5314 7.05468 15.189
Pd 12.6241 6.71752 10.516
Au 12.6996 22.873 25.7683
Pd 14.7767 15.4537 21.1628
Au 14.8049 16.679 7.42173
Pd 19.0711 17.1777 22.7791
Au 21.6415 11.2865 14.9167
Pd 18.3359 9.15561 16.0512
Au 17.6935 15.2051 27.8162
Pd 16.337 27.4377 16.0368
Au 20.9585 16.92 20.8765
Au 13.7507 24.8931 24.3991
Pd 10.1879 5.57117 6.97349
Au 10.9718 17.4268 25.2231
Pd 8.7262 13.1032 10.6951
Au 12.309 6.46173 5.65291
Pd 23.4048 14.2886 8.17931
Au 25.0255 13.4052 12.3417
Pd 12.408 24.9948 16.995
Au 22.7372 9.062 21.6055
Pd 15.6986 11.609 4.82269
Au 4.27317 11.3598 18.2347
Au 20.3487 3.48819 13.2763
Pd 24.8755 15.0889 19.5419
Au 15.0028 25.912 10.6044
Pd 10.2419 23.9375 15.9889
Au 8.49862 15.8126 11.2659
Pd 13.6055 26.4809 12.8994
Au 13.1159 3.95864 10.1813
Pd 8.53508 23.999 7.10874
Au 19.7582 5.51222 21.8885
Pd 22.4653 8.50554 12.6186
Au 24.2314 16.4533 6.7595
Au 19.8758 19.3838 21.677
Pd 12.5387 22.1997 16.5863
Au 23.5476 9.50911 7.12183
Pd 13.1765 11.7444 18.8372
Au 16.4064 8.73283 18.1726
Pd 26.3226 11.1912 11.4719
Au 22.18 11.5623 8.08145
Pd 23.7843 13.8091 21.6499
Au 12.6168 3.84503 14.6513
Pd 19.0314 27.5684 15.8287
Pd 18.6395 11.111 25.7834
Pd 22.0121 11.6765 21.5513
Pd 20.2345 12.691 24.0017
Pd 22.5138 13.6087 16.1929
Pd 10.2515 23.5746 13.2572
Pd 8.655 18.6557 5.62779
Pd 20.043 9.69718 21.2658
Pd 10.4304 22.8004 10.8186
Pd 17.9383 27.658 18.148
Pd 5.85157 11.1892 20.5256
Pd 17.5686 12.0548 23.4472
Pd 10.5879 5.36054 9.57341
Au 21.7308 7.62407 7.76493
Au 7.42263 8.50267 16.2281
Pd 12.8027 9.32921 10.5287
Au 11.1104 8.89072 12.8511
Pd 20.5758 15.8928 2.89386
Au 4.43294 12.9537 11.3882
Pd 14.5514 11.6264 27.6313
Au 15.2058 4.26143 19.2277
Pd 15.1846 22.668 23.9713
Au 3.00752 14.1296 14.7839
Pd 21.7688 13.6861 3.78755
Au 19.3735 13.4332 2.38162
Pd 5.29954 10.5883 9.5486
Au 7.97122 10.2564 9.78626
Pd 13.6831 3.90956 17.1057
Au 10.2363 19.6718 7.97476
Pd 17.623 11.7975 12.2197
Au 11.0587 15.2373 27.133
Pd 6.49556 16.8895 12.7003
Au 11.9301 20.3062 26.3221
Pd 17.8329 19.0435 24.3903
Pd 13.8535 7.91569 8.30137
Au 14.6465 23.7174 17.5059
Au 24.1348 21.375 20.9487
Pd 11.1834 15.2102 17.0733
Au 24.4297 17.3469 24.2449
Pd 26.9143 14.572 16.0058
Au 14.3101 7.71711 4.45374
Pd 9.40378 17.1749 7.72837
Au 11.2223 12.7035 20.7082
Pd 6.78974 14.1716 12.3828
Au 14.5246 18.1662 21.7828
Pd 7.57967 17.3324 15.4589
Au 19.8253 20.7018 2.86246
Pd 10.1503 6.46442 11.9446
Au 5.22517 6.85579 16.2164
Pd 21.3701 13.7143 6.41191
Au 8.55531 7.43559 7.9641
Pd 9.86575 11.5273 27.4856
Au 21.2265 20.6463 5.12412
Pd 16.9398 5.6489 11.3756
Au 22.5475 23.5111 21.5115
Pd 19.6791 15.7855 7.08032
Pd 18.2838 7.5739 20.8057
Au 2.57167 13.4218 17.6673
Au 9.34516 6.24431 16.9533
Pd 10.304 15.0826 19.6384
Au 21.5909 9.67622 19.1081
Pd 20.8528 21.1657 17.0306
Au 11.4161 22.2422 21.245
Pd 10.3553 13.5002 12.6786
Au 26.017 14.4496 7.28496
Pd 9.46264 10.8688 11.9469
Au 5.31937 19.8208 9.37452
Pd 5.76394 14.1301 21.5559
Au 22.3956 19.0483 16.4246
Pd 15.5347 14.3976 8.52567
Au 20.9257 18.031 14.2394
Pd 21.2509 22.6683 6.67492
Au 10.9442 12.0631 6.81491
Pd 18.4714 17.8558 27.4269
Au 10.4606 22.9914 5.39022
Pd 11.441 23.7227 23.5517
Au 19.3647 12.3447 21.4295
Pd 14.1013 5.42756 12.2669
Pd 18.0375 10.1062 5.50755
Au 12.8213 14.3536 11.891
Au 7.55703 15.7019 20.015
Pd 11.9609 18.0876 10.2777
Au 24.6808 11.2074 21.7365
Pd 20.8876 9.75836 6.17483
Au 12.4936 24.929 19.7268
Pd 23.4234 8.25679 17.4746
Au 11.7688 14.9346 14.4482
Pd 11.5184 18.7207 13.6104
Au 9.42674 15.4635 22.1364
Pd 22.9331 11.1199 17.2732
Au 13.5316 13.6963 25.6132
Pd 22.2183 14.8105 19.3496
Au 11.5018 17.3475 22.5653
Pd 12.8754 14.4651 19.1189
Au 23.7417 10.8453 12.4749
Pd 15.4349 21.3297 12.6227
Au 20.0922 9.60273 8.763
Pd 12.9205 21.4069 23.5347
Au 16.784 13.7089 3.48445
Pd 18.0178 18.1211 7.27478
Pd 16.4935 15.8745 15.7335
Au 9.95499 12.8932 23.1664
Au 8.78729 22.6134 20.2871
Pd 21.6337 23.8024 17.0876
Au 11.4931 4.22994 12.2194
Pd 19.21 20.2731 26.4728
Au 24.756 7.42007 13.7186
Pd 10.8715 7.57674 23.5467
Au 17.1416 12.6671 27.9028
Pd 15.5175 17.832 25.282
Au 21.8176 16.2481 16.2695
Pd 10.2468 17.1498 15.3907
Au 18.1686 6.73041 23.6133
Pd 17.1696 6.05197 18.5159
Au 8.93804 18.0732 23.1634
Pd 14.7769 22.5861 14.9366
Au 14.9889 20.6154 10.0298
Pd 21.2419 4.69719 15.3812
Au 11.7984 19.5896 16.2984
Pd 17.1054 15.6238 6.52517
Au 20.1606 8.81444 25.5845
Pd 8.28446 13.2286 20.9187
Pd 13.6957 23.5902 21.8974
Pd 18.5666 20.85 19.9604
Pd 24.5304 11.991 14.9689
Pd 24.279 18.8461 8.07254
Pd 14.0464 15.6906 17.0514
Pd 21.7869 11.8909 10.7598
Pd 9.69149 16.0955 5.26012
Pd 6.84941 21.9324 8.23209
Pd 13.5934 17.0152 12.4414
Pd 18.0424 20.598 17.3762
Pd 23.4188 20.2594 18.5828
Pd 15.2138 7.33667 24.9433
Au 24.413 15.8971 17.0673
Au 8.0642 23.0049 17.6868
Pd 7.63249 23.6771 12.419
Au 14.3757 18.4528 16.9685
Pd 8.78656 16.2586 17.632
Au 8.69716 6.73855 22.0885
Pd 14.6171 17.8702 9.89696
Au 21.2511 23.1424 23.9174
Pd 20.2022 13.7709 14.6971
Au 9.33558 25.5464 11.659
Pd 17.8148 11.3585 3.12971
Au 17.4305 25.1547 11.8183
Pd 19.6681 21.2245 10.0157
Au 5.33321 19.6376 20.2597
Pd 16.0173 4.25913 13.594
Au 19.6144 11.9139 7.27688
Pd 12.2049 14.8557 21.839
Au 12.6465 24.1624 14.3865
Pd 20.237 16.6665 18.3538
Au 6.07569 12.1484 7.09352
Pd 15.8454 15.1852 25.6346
Pd 10.9616 16.3847 12.3049
Au 13.1025 27.076 15.4788
Au 6.97496 9.69259 7.36417
Pd 13.4099 22.2326 19.3505
Au 17.8351 25.2899 15.1326
Pd 6.6687 11.3929 11.902
Au 21.0943 7.26384 20.2631
Pd 20.8891 13.8429 9.00866
Au 15.5725 8.85963 15.4266
Pd 12.9485 18.8929 7.90798
Au 18.593 23.5825 23.8068
Pd 11.2894 13.4185 9.80779
Au 7.65607 8.86934 20.8224
Pd 13.9358 18.8179 27.2795
Au 23.8973 14.0642 5.49038
Pd 6.42895 7.50733 13.9037
Au 24.2751 9.73937 19.4806
Pd 20.0346 5.53226 8.41357
Au 17.7983 4.10848 9.39983
Pd 26.3612 17.092 15.3573
Au 21.2068 7.18592 10.4296
Pd 8.599 9.7048 14.1329
Pd 24.0174 21.133 9.53736
Au 4.148 17.9237 13.6713
Au 8.64744 9.08758 23.4044
Pd 13.3121 12.7245 14.058
Au 16.4308 24.9387 24.4353
Pd 20.8136 19.2291 19.0174
Au 23.7021 6.39947 11.3882
Pd 13.7375 20.1866 14.591
Au 18.946 4.72654 16.7007
Pd 15.2528 5.59034 9.2452
Au 10.4573 8.5461 15.9388
Pd 9.54468 20.1612 21.433
Au 16.1638 26.846 13.4328
Pd 15.9713 18.6533 11.9862
Au 12.5807 8.18183 25.5332
Pd 25.3785 13.0109 23.6051
Au 10.3219 25.131 9.30864
Pd 17.3343 16.134 20.7836
Au 19.8063 13.0625 27.4698
Pd 5.3023 16.9208 20.7579
Au 6.28139 21.8931 10.8874
Pd 10.873 23.0507 18.6207
Pd 7.9691 8.35166 11.8713
Au 19.7841 6.97252 15.4266
Au 25.9 18.023 22.1353
Pd 7.5155 13.7671 23.6698
Au 4.59599 20.1504 12.1805
Pd 6.60719 19.362 13.9385
Au 12.3451 19.0407 3.38301
Pd 12.8257 13.2306 16.5532
Au 11.9255 10.6201 16.6342
Pd 11.2029 21.4327 14.325
Au 8.30461 11.4156 5.59186
Pd 13.0084 13.6699 7.68392
Au 27.0806 16.0503 20.5804
Pd 11.1717 24.9785 6.91926
Au 15.3314 13.8833 23.3144
Pd 20.2981 14.2164 17.4975
Au 18.0004 15.8069 2.23974
Pd 17.4705 12.9027 6.12373
Au 21.7427 22.7268 9.26624
Pd 9.21339 13.6998 26.0361
Au 7.71747 14.1436 6.09458
Pd 11.3198 7.70387 8.06206
Pd 23.6385 12.4048 19.4838
Au 10.0841 17.7812 20.0411
Au 9.90085 13.3807 4.60672
Pd 8.99654 16.9339 27.0699
Au 23.3473 21.8129 16.3446
Pd 26.167 11.5516 19.1266
Au 19.2172 14.3966 4.80279
Pd 18.9577 22.2456 5.20706
Au 17.6872 8.04451 25.9079
Pd 14.5443 21.8811 7.48872
Au 13.1509 23.6242 5.89335
Pd 23.2922 5.01548 13.6445
Au 20.4055 25.1408 22.1855
Pd 15.153 24.7375 19.9026
Au 22.726 11.5904 5.37483
Pd 11.4473 7.62403 18.3673
Au 13.7657 4.83472 21.3615
Pd 17.5099 10.4865 8.03186
Au 21.8489 16.1219 5.30295
Pd 11.9951 21.2268 6.68984
Au 22.0761 20.1807 24.8722
Pd 15.1554 10.0615 9.30963
Pd 22.0607 15.6197 13.6336
Pd 5.5034 14.7257 7.6842
Pd 23.5329 9.47099 14.9881
Pd 12.2893 19.6909 21.5453
Pd 8.09906 12.3345 13.9943
Pd 17.0255 21.7916 8.55625
Pd 13.6726 17.018 5.10379
Pd 22.905 12.3504 23.9707
Pd 19.3648 15.9284 13.228
Pd 19.1775 22.8824 18.2489
Pd 14.5509 20.9738 25.9101
Pd 19.7242 24.6094 13.1206
Au 17.2696 21.6524 25.2488
Au 13.9307 14.7407 3.20061
Pd 16.1675 19.6774 19.3062
Au 14.7945 24.6848 7.78864
Pd 22.3862 16.7433 25.8124
Au 10.0238 7.89816 5.5591
Pd 8.41177 13.6919 18.0538
Au 19.3195 18.1887 2.06797
Pd 13.3197 10.1686 14.2453
Au 13.3907 19.6193 11.9405
Pd 27.2087 13.9968 18.6184
Au 19.249 7.66711 18.1655
Pd 20.949 24.4542 19.6207
Au 7.26816 18.0056 25.2275
Pd 22.0053 20.6222 14.1836
Au 9.95163 4.64748 14.5729
Pd 14.5185 10.9609 16.6784
Au 13.5221 19.4912 19.2426
Pd 11.3069 12.1438 25.4521
Au 19.5874 23.1569 15.5189
Pd 7.48868 19.3069 7.93245
Pd 6.80194 18.2112 18.3175
Au 14.6345 8.97626 27.0029
Au 15.1258 26.0434 22.353
Pd 7.05346 17.3352 9.58493
Au 5.83745 6.48526 11.5536
Pd 23.2147 15.0419 23.8953
Au 6.99699 16.7537 6.72082
Pd 27.5324 13.6697 11.3943
Au 13.1608 6.21339 23.5099
Pd 7.04759 6.74635 18.2532
Au 27.004 12.5948 13.9342
Pd 16.3536 16.5291 23.1674
Au 14.5405 15.0967 14.1167
Pd 15.0645 25.2309 15.3272
Au 8.1957 11.1936 19.1131
Pd 22.5335 13.1106 13.2577
Au 4.87558 17.3324 8.27075
Pd 7.02766 19.2883 11.331
Au 13.3981 16.3346 26.5056
Pd 16.8988 7.63307 5.45681
Au 25.3921 10.0812 16.8873
Pd 12.4424 5.30293 19.1259
Pd 18.375 18.176 19.3684
Au 15.4636 19.9673 23.6317
Au 26.8284 16.5946 17.9769
Pd 12.9098 17.1718 15.1762
Au 5.31763 12.9184 14.0806
Pd 12.5547 10.401 21.2086
Au 8.58038 21.2968 6.35882
Pd 17.4221 13.8996 13.864
Au 6.07124 22.2367 19.2919
Pd 17.1198 18.7672 21.6674
Au 10.3352 26.6985 16.0926
Pd 12.8563 22.1998 12.3407
Au 10.7192 10.9214 9.58066
Pd 21.7953 21.0108 22.2925
Au 19.1197 23.3086 7.91624
Pd 18.1387 18.1911 14.2868
Au 10.1231 24.7422 21.2251
Pd 17.9674 3.15977 12.131
Au 19.4411 26.7405 20.1403
Pd 18.4589 5.30235 13.861
Au 12.2228 12.9599 27.8588
Pd 21.0338 6.2479 13.0609
Pd 22.8348 17.385 18.673
Au 22.6368 5.39216 9.05568
Au 17.3896 10.469 21.1772
Pd 17.5111 9.58462 10.6372
Au 4.06976 17.8198 18.5784
Pd 20.4745 19.4234 12.0067
Au 13.1749 18.7686 24.4115
Pd 6.26706 9.36151 18.5614
Au 9.17048 22.4843 22.9272
Pd 6.37179 12.9226 9.60017
Au 21.4305 16.882 11.3592
Pd 14.1248 12.8859 20.9365
Au 17.6995 15.6578 18.1824
Pd 18.1811 13.9667 8.4834
Au 11.8196 17.5506 17.8904
Pd 19.9797 22.0865 12.6374
Au 7.71303 24.8834 19.5314
Pd 3.54389 11.5646 15.5824
Au 25.3455 18.9139 10.53
Pd 15.1349 22.3133 4.70416
Au 24.9333 13.2239 17.3477
Pd 11.1847 5.71731 21.5991
Pd 20.5199 18.3132 6.47088
Au 11.9244 6.45433 13.9317
Au 24.2456 12.1885 9.93222
Pd 19.5139 25.505 17.5696
Au 16.5057 23.5937 21.8979
Pd 11.7071 16.4301 3.47603
Au 18.7629 10.1757 18.88
Pd 17.0319 22.9 16.4454
Au 26.2596 16.9731 8.46754
Pd 12.7533 16.9629 20.1993
Au 6.83084 16.2812 22.868
Pd 5.14312 18.1118 16.152
Au 13.7777 27.2655 20.3015
Pd 8.9307 18.0613 12.8865
Au 13.9702 19.834 5.56583
Pd 14.9024 14.2176 5.71523
Au 7.96591 25.4643 16.8553
Pd 10.336 20.4539 4.56573
Au 22.0198 23.2905 14.3417
Pd 18.7077 19.4978 4.84856
Au 12.2092 10.2627 27.357
Pd 22.8492 14.5123 10.8813
Pd 9.22575 19.7056 14.8466
Pd 11.334 14.8337 24.4446
Pd 8.04205 20.4112 19.0723
Pd 8.13325 6.15382 10.2297
Pd 12.899 10.6506 8.06209
Pd 17.0287 16.6457 9.27488
Pd 21.273 14.3529 22.0194
Pd 16.087 16.1115 4.08472
Pd 14.5888 26.5306 17.8524
Pd 14.8982 21.1241 21.3017
Pd 19.6921 20.9368 23.9612
Pd 16.493 7.98783 8.17837
Au 4.3735 20.4061 15.0412
Au 11.0626 26.2239 13.6191
Pd 12.1936 14.5546 5.30195
Au 17.9322 2.93206 14.9101
Pd 23.5885 16.518 21.5069
Au 7.84831 5.29513 12.7991
Pd 21.9136 17.8784 23.2623
Au 21.9535 20.3451 7.81085
Pd 22.7962 19.0073 20.8694
Au 11.3136 18.3263 5.72576
Pd 16.5311 12.2885 9.88413
Au 25.9809 9.96519 13.9235
Pd 18.3623 14.6057 22.8678
Au 19.9991 18.5781 9.1987
Pd 12.754 12.5869 23.1975
Au 12.4201 24.6047 11.3477
Pd 4.9115 13.6579 16.6695
Au 20.5298 15.5266 24.2801
Pd 15.5573 14.1682 18.7672
Au 16.209 7.05672 13.4505
Pd 23.8042 17.404 14.79
Pd 10.9746 20.3365 19.0903
Au 3.77148 10.9448 12.9399
Au 8.63393 11.3486 24.9795
Pd 13.605 9.08586 18.3894
Au 15.8423 11.5017 14.3559
Pd 19.578 5.06309 11.1213
Au 24.1017 19.6978 23.1392
Pd 16.4593 22.4232 19.2362
Au 9.70543 9.78397 7.35121
Pd 17.38 9.44658 13.4198
Au 14.9388 6.17482 6.55464
Pd 16.2296 4.32076 16.5531
Au 18.3131 13.8684 25.4977
Pd 4.6268 17.7439 10.97
Au 5.74004 22.541 16.3608
Pd 6.05131 15.8427 17.6418
Au 11.4077 17.9708 27.7231
Pd 8.65057 20.9361 9.89574
Au 21.9311 23.9247 11.7242
Pd 15.024 10.4059 11.9697
Au 6.05333 13.3635 19.0548
Pd 17.7565 14.4238 11.152
Pd 23.3676 22.9854 18.8995
Au 15.5082 6.79636 20.4161
Au 16.9207 10.095 27.5139
Pd 15.9418 12.439 25.5554
Au 25.7483 15.449 22.7919
Pd 9.92657 13.4098 15.6345
Au 21.306 11.2919 26.0999
Pd 12.6282 21.6837 4.07254
Au 10.2018 14.4896 7.33147
Pd 20.1932 9.19365 13.9934
Au 21.9022 16.747 8.20188
Pd 18.572 11.5141 14.7388
Au 27.1367 11.9736 16.5412
Pd 16.7997 23.4853 6.50413
Au 15.6353 19.2546 7.8123
Pd 14.938 2.54369 15.1407
Au 7.37632 14.3033 15.7341
Pd 13.727 16.0966 23.787
Au 26.909 15.3566 13.3776
Pd 8.01077 20.409 24.1291
Au 20.3351 14.0993 11.685
Pd 18.7373 16.9632 4.6423
Pd 16.6113 19.5945 26.871
Au 16.8767 18.4366 2.76625
Au 12.2537 20.9235 9.62464
Pd 9.37065 18.3545 10.2414
Au 17.4674 22.8848 13.7271
Pd 17.0994 6.72827 15.9576
Au 4.8088 20.3505 17.7533
Pd 18.5918 9.49496 23.5297
Au 22.2987 21.3403 11.5402
Pd 18.1851 12.8371 18.8754
Au 24.5556 14.7096 14.6777
Pd 19.3596 20.5695 14.7831
Au 3.95687 8.48485 14.1122
Pd 21.4414 6.35764 17.5876
Au 10.1392 22.0326 25.352
Pd 8.95157 8.62566 18.4321
Au 15.0199 21.0273 17.2396
Pd 8.45931 21.1752 12.6699
Au 14.7771 23.245 10.1906
Pd 16.7946 20.8478 6.05939
Au 12.5331 23.4279 8.67365
Pd 20.1298 15.7597 26.9186
Pd 13.2378 11.9119 5.5713
Au 17.4998 5.68552 7.35501
Au 26.3658 13.3582 21.1002
Pd 17.3677 22.4751 11.0597
Au 6.0677 18.8652 22.9198
Pd 12.2164 11.5188 11.9123
Au 10.8307 11.3065 14.2891
Pd 16.1716 18.346 5.31773
Au 19.5619 23.9786 10.4573
Pd 25.4083 10.0302 9.03718
Au 16.6086 20.4223 15.0029
Pd 24.9891 18.6046 17.0932
Au 6.99392 21.1209 21.7088
Pd 12.8489 26.0475 8.98964
Au 15.6415 3.36116 10.8399
Pd 17.9725 20.2858 12.4737
Au 10.1663 9.34643 25.8244
Pd 19.5571 15.9603 9.74782
Au 18.1674 24.5015 20.0504
Pd 21.8489 13.9203 25.9314
Au 6.59581 11.5399 16.6876
Pd 13.6319 10.801 25.1187
Pd 15.2558 12.0131 7.46177
Pd 23.9313 16.7815 9.80609
Pd 9.4631 6.23272 19.6131
Pd 8.80041 15.8657 24.7119
Pd 15.3859 17.0699 19.0963
Pd 20.9481 12.3557 19.2589
Pd 23.1854 18.6846 12.5698
Pd 13.7728 8.04196 12.8963
Pd 9.17993 10.904 16.5881
Pd 16.3026 8.33744 22.6194
Pd 10.7711 10.648 4.57551
Pd 12.0602 16.387 7.30844
Au 25.2029 17.9916 19.6711
Au 15.1626 9.5069 6.36266
Pd 17.8735 25.9197 22.3452
Au 5.99607 10.2497 14.3316
Pd 5.36072 15.7184 14.8415
Au 15.3797 7.80805 10.7964
Pd 9.85683 21.3477 16.8215
Au 25.9385 18.3815 13.0728
Pd 16.9036 25.2316 17.7642
Au 6.38414 8.08757 9.5068
Pd 8.8503 15.4169 13.8907
Au 27.9138 14.9721 9.1123
Pd 19.1447 16.1261 15.8373
Au 20.023 11.7908 4.56707
Pd 17.0858 11.2483 16.911
Au 12.3868 25.9752 22.3309
Pd 10.7423 12.6875 18.123
Au 8.08346 23.7063 9.77374
Pd 16.729 16.2727 12.9886
Au 17.054 18.1611 16.9516
Pd 19.1838 11.9124 10.0434
Pd 10.5567 15.8868 9.67918
Au 14.7578 12.2119 2.5083
Au 12.179 12.6733 3.27288
Pd 14.8593 14.3221 27.9006
Au 14.9654 9.44657 20.5751
Pd 11.885 5.72214 16.4959
Au 14.3023 17.4234 2.54986
Pd 15.4159 13.4487 16.1493
Au 16.1785 9.88526 24.8672
Pd 26.8399 16.6414 11.0488
Au 15.058 24.1593 12.7461
Pd 15.2923 13.1284 12.2326
Au 20.2311 18.1881 25.3115
Pd 25.4423 14.6335 9.95605
Au 12.9555 7.49911 20.7439
Pd 11.5202 27.0084 11.0805
Au 7.32384 5.47279 15.501
Pd 15.8183 11.5036 19.1726
Au 3.96188 15.1637 19.226
Pd 17.5236 21.261 22.4661
Au 3.35986 15.9811 16.6862
Pd 18.0714 16.5087 25.2502
Pd 14.5237 6.54169 17.7466
Au 25.0806 8.75044 11.402
Au 7.14265 20.2626 16.4397
Pd 10.7244 19.9612 23.825
Au 22.067 4.28244 11.386
Pd 14.4201 5.84066 15.1226
Au 5.90255 22.0269 13.6307
Pd 13.1722 15.6023 9.54648
Au 17.6686 3.38779 18.6469
Pd 19.4724 14.7552 20.1542
Au 21.208 18.3606 3.80108
Pd 5.51409 15.3305 10.2912
Au 24.6048 19.9879 14.8119
Pd 22.758 9.5171 9.94353
Au 20.1904 9.55467 11.3544
Pd 20.6177 7.7147 22.9989
Au 4.61738 9.33458 16.5143
Pd 22.4708 19.0474 10.0622
Au 17.5102 19.4695 9.79515
Pd 10.0404 8.40029 10.194
Au 21.3319 10.1946 23.6817
Pd 9.10044 7.12963 14.2626
Pd 10.1463 22.4137 8.20698
Au 18.801 27.0502 13.3176
Au 12.7652 5.34325 7.9916
Pd 24.73 20.8176 12.2771
Au 12.4473 9.12037 5.95504
Pd 16.7903 13.3633 21.0785
Au 15.3063 15.454 10.9977
Pd 21.0774 9.08876 16.5459
Au 17.3794 4.83509 20.9641
Pd 19.0373 7.91031 7.02938
Au 13.4737 10.155 3.60322
Pd 19.2595 20.6348 7.36225
Au 24.4779 16.2167 12.3447
Pd 23.005 18.6498 5.79971
Au 3.6901 12.8306 20.3055
Pd 5.34034 9.08529 11.8318
Au 26.808 12.4593 9.03547
Pd 10.6874 20.2451 11.7002
Au 14.7925 20.1061 3.07948
Pd 21.3005 21.6884 19.7002
Au 17.2277 21.1545 3.37065
Pd 16.1158 9.39431 3.58466
Pd 13.0762 8.07765 15.9288
Au 15.0978 11.1591 22.7213
Au 13.8541 12.4561 9.98561
Pd 10.4556 8.36459 20.9794
Au 12.0928 27.4619 18.0493
Pd 19.9855 11.586 16.9463
Au 8.18404 22.5677 14.9536
Pd 7.62499 18.3129 20.857
Au 20.7853 25.6765 15.2362
Pd 17.0423 24.4806 9.20074
Au 15.8519 17.0282 27.7871
Pd 15.7678 5.70685 22.9012
Au 11.2139 10.2472 23.5407
Pd 18.7664 7.48882 12.3439
Au 23.7128 22.2427 23.6044
Pd 9.36763 18.7701 17.4342
Au 15.3603 18.0234 14.4871
Pd 19.7163 18.6353 16.6261
Au 13.8637 2.74354 12.6421
Pd 20.1896 11.7274 12.7829
Au 16.576 26.931 20.1763
Pd 8.57516 25.3474 14.3243
