665
Atoms. Timestep: 20308
Pd 7.21925 8.21299 8.30933
Pd 5.66747 7.92002 12.7
Pd 3.92937 7.69641 17.0689
Pd 4.13204 6.94295 19.6538
Pd 5.74 8.12164 21.6441
Au 7.38173 9.55959 5.92884
Au 5.63375 9.21724 10.2434
Pd 5.94595 10.6484 7.87455
Au 3.8355 8.66585 14.5162
Pd 3.90803 10.0721 12.0852
Au 3.57111 10.2129 18.0096
Pd 3.61215 11.1864 15.477
Au 3.71441 9.39864 20.559
Pd 4.15295 11.9502 20.1308
Au 6.67558 9.18763 24.0484
Pd 4.81892 10.5995 22.7803
Au 6.45401 12.032 5.51996
Au 4.18981 11.5583 9.67645
Pd 4.70643 12.9905 7.34918
Au 3.98749 12.5775 13.1267
Pd 4.53254 13.9983 10.8045
Au 3.72684 12.992 17.6511
Pd 3.52324 14.178 15.2799
Au 5.10986 13.229 22.358
Pd 4.48475 14.5863 19.8866
Au 6.03408 11.7211 25.0052
Pd 6.42709 14.4479 24.3811
Au 7.70644 15.7528 4.42409
Au 5.08144 15.4251 8.48213
Pd 5.87522 16.8147 6.1192
Au 3.96742 15.5384 13.008
Pd 4.53812 16.9142 10.7602
Au 3.87619 15.7587 17.512
Pd 3.5862 17.1277 15.1863
Au 5.52828 15.8932 22.1296
Pd 4.73507 17.239 19.7862
Au 7.69352 15.786 26.4965
Pd 6.6898 17.159 24.3173
Au 6.81416 18.186 3.86443
Au 5.07792 18.2049 8.39314
Pd 5.79158 19.5117 6.08667
Au 4.06614 18.5375 12.9791
Pd 4.65083 19.763 10.6377
Au 3.96038 18.4666 17.4855
Pd 3.80678 20.1106 15.3012
Au 5.69972 18.5793 22.0413
Pd 4.844 19.9245 19.7492
Au 7.71595 18.5989 26.3781
Pd 6.70401 19.9374 24.157
Au 7.98702 22.9289 4.37093
Au 5.15089 20.9956 8.26437
Pd 6.52891 20.8157 3.91988
Au 4.29826 21.3239 12.8668
Pd 4.89659 22.4856 10.4566
Au 3.29705 20.9251 17.8722
Pd 4.36033 22.5829 16.3023
Au 5.78082 21.3 21.8365
Pd 5.08382 22.5263 19.0169
Au 8.69247 21.0767 25.5314
Pd 7.83284 22.3404 23.3159
Pd 8.87606 7.32665 6.2249
Pd 7.519 7.14123 10.7098
Pd 9.47702 6.55891 8.63811
Pd 5.9016 6.98787 15.2396
Pd 7.93643 6.37976 13.2257
Pd 6.0722 6.2559 17.8356
Pd 8.28285 5.77252 15.8211
Pd 6.3018 5.72534 20.4762
Pd 8.45951 5.36783 18.5312
Pd 7.74146 6.78076 22.736
Pd 8.64925 4.84502 21.173
Pd 9.61455 10.7884 5.23482
Au 11.0995 8.53102 5.55492
Au 9.42286 9.43695 7.69264
Pd 7.93114 10.6905 9.68946
Au 9.7017 8.63754 10.2334
Pd 11.5303 10.8053 7.18018
Au 7.73321 9.4504 12.0719
Pd 5.78673 10.4242 13.8657
Au 7.9012 8.65593 14.607
Pd 9.98002 10.9305 11.7491
Au 5.7062 9.4918 16.3
Pd 5.96595 11.5646 18.026
Au 7.99443 8.02861 17.2032
Pd 7.98376 10.9786 16.1074
Au 5.78744 8.76388 18.866
Pd 6.37662 10.5911 20.6916
Au 7.99572 7.60312 19.9554
Pd 8.24854 10.243 18.7698
Au 8.32197 9.33091 22.0197
Pd 8.83165 10.5812 24.7614
Au 9.77164 8.09703 23.983
Pd 10.5384 10.6093 22.6915
Pd 8.81149 13.3503 4.96654
Au 11.7245 12.3294 4.60932
Au 8.36084 11.9913 7.32792
Pd 6.54719 13.0586 9.16838
Au 10.3045 12.1335 9.32652
Pd 10.6987 13.4029 6.89497
Au 6.06165 11.6982 11.5046
Pd 6.2799 14.0302 13.0279
Au 7.9972 11.861 13.5828
Pd 8.38341 13.1337 11.199
Au 5.78361 12.6774 15.4575
Pd 6.17012 14.3417 17.6341
Au 8.48414 12.9225 17.9304
Pd 8.11038 14.0415 15.3221
Au 6.72664 13.166 20.1161
Pd 7.89373 14.4889 22.1542
Au 9.04931 11.8885 20.8088
Pd 9.47338 14.4712 19.9226
Au 7.3963 11.8878 22.9066
Pd 8.3205 13.1275 25.5834
Au 10.9321 12.0249 25.6619
Pd 9.8373 13.1162 23.3962
Pd 9.85327 17.3172 3.99017
Au 10.953 14.8885 4.37157
Au 6.96468 14.4029 6.72264
Pd 7.49065 16.7638 8.27694
Au 8.88088 14.4509 8.80342
Pd 9.42845 15.7834 6.46778
Au 6.84509 15.4037 10.6416
Pd 6.31592 16.9471 12.9183
Au 8.63471 15.4006 12.8778
Pd 9.23908 16.7813 10.5111
Au 5.7892 15.6074 15.2505
Pd 6.32181 17.1771 17.4614
Au 8.68698 15.6988 17.4998
Pd 8.20374 16.9863 15.1314
Au 7.05643 15.8454 19.8073
Pd 8.09369 17.1784 21.9994
Au 10.596 15.7392 22.1334
Pd 9.62341 17.1577 19.7086
Au 9.09749 15.6719 24.3586
Pd 9.99762 17.215 26.5338
Au 10.3106 14.5426 26.645
Pd 11.5243 17.2847 24.3748
Pd 8.97263 19.8417 3.86304
Au 11.7428 19.3312 3.91623
Au 8.27029 18.2085 6.00697
Pd 7.46571 19.5895 8.2661
Au 9.87614 18.2743 8.25922
Pd 10.4598 19.9678 6.21807
Au 6.90042 18.237 10.5515
Pd 6.50055 19.8099 12.7389
Au 8.77919 18.3043 12.7938
Pd 9.31158 19.7097 10.512
Au 5.93086 18.548 15.146
Pd 6.06173 20.2771 17.293
Au 8.73854 18.5615 17.3473
Pd 8.35582 19.9349 14.9695
Au 7.18455 18.5806 19.6611
Pd 8.14118 19.9575 21.8905
Au 10.574 18.5656 21.9468
Pd 9.69114 19.9304 19.5903
Au 9.06511 18.5512 24.1827
Pd 10.9011 19.6697 25.8075
Au 13.3158 18.587 26.0617
Pd 12.6126 19.6794 23.6281
Pd 5.82234 22.3035 6.00233
Au 10.4735 21.9525 4.35886
Au 8.08027 21.0725 6.14837
Pd 7.1959 22.7542 8.24109
Au 9.51575 21.5193 8.48046
Pd 9.50642 23.3934 6.51544
Au 7.05787 21.1341 10.406
Pd 6.5972 22.7821 12.51
Au 8.80861 21.3594 12.6475
Pd 8.72822 23.2239 10.5547
Au 6.15222 21.4728 14.8293
Pd 6.82178 22.9878 17.0375
Au 8.84919 21.3518 17.2167
Pd 8.338 22.9899 14.7532
Au 7.31509 21.3017 19.5074
Pd 6.92527 23.5036 20.9864
Au 9.3846 22.2865 21.077
Pd 8.54313 23.6862 18.9008
Au 10.264 21.0114 23.3725
Pd 10.1054 23.4752 24.444
Au 12.1813 21.9671 25.0983
Pd 9.02238 24.586 22.3205
Pd 11.3717 6.03902 6.60195
Pd 9.92344 5.89808 11.2278
Pd 11.9198 5.50853 9.18606
Pd 10.4062 5.37064 13.9705
Pd 12.3658 4.98649 11.9741
Pd 10.6902 5.09631 16.9263
Pd 12.8265 4.85363 15.3517
Pd 10.8466 4.9396 19.7762
Pd 13.0858 4.83506 18.4734
Pd 10.0332 5.39543 23.4382
Pd 12.429 5.34962 22.1031
Pd 13.1801 10.1254 5.12708
Au 13.6401 7.55744 6.0979
Au 11.7924 8.04389 8.16058
Pd 12.0719 10.1265 9.81995
Au 12.1116 7.53347 10.8777
Pd 13.9681 9.70928 7.71659
Au 10.0697 7.99579 12.8643
Pd 10.1823 10.2737 14.3671
Au 12.533 7.01136 13.7166
Pd 12.304 9.68293 12.5133
Au 10.3458 7.50917 15.5654
Pd 10.3279 9.78151 17.0423
Au 12.7147 6.99143 16.9355
Pd 12.5812 9.24651 15.3185
Au 10.3791 7.29203 18.4214
Pd 10.3681 9.35796 20.1557
Au 12.6295 7.00495 20.0418
Pd 12.571 9.24255 18.4573
Au 10.1866 6.98275 21.4191
Pd 11.8933 9.57931 24.7985
Au 12.1204 6.75344 24.3434
Pd 12.1629 8.49754 22.3096
Pd 13.709 14.1822 4.17117
Au 15.0889 11.9272 4.57957
Au 13.4495 12.4707 6.70725
Pd 12.542 13.7537 8.99851
Au 14.2421 11.7687 9.42347
Pd 15.3094 14.2964 6.35951
Au 12.302 12.3288 11.4201
Pd 10.2564 13.2396 13.3522
Au 12.5099 11.8617 14.0992
Pd 14.4881 13.9307 11.1457
Au 10.3703 12.4788 15.9521
Pd 11.1109 14.3589 17.7545
Au 12.7715 11.4878 16.8888
Pd 12.8801 14.0224 15.7339
Au 10.8504 11.7912 18.7971
Pd 11.4621 13.1955 21.2048
Au 12.5473 10.7621 20.7481
Pd 13.2049 13.2502 19.0909
Au 12.5818 12.0873 23.4926
Pd 13.0956 13.3746 26.4898
Au 14.046 10.9685 25.5732
Pd 14.6613 13.5128 24.3067
Pd 12.8411 16.7934 3.93547
Au 15.5118 16.1883 3.80566
Au 12.7029 15.1544 6.46617
Pd 11.1773 15.9871 8.62628
Au 14.5322 15.6186 8.61279
Pd 14.5044 17.1719 6.11164
Au 10.7082 14.5411 10.9701
Pd 11.0074 16.7424 12.8291
Au 12.5977 14.56 13.1331
Pd 12.9622 16.0773 10.8123
Au 10.474 15.3735 15.2003
Pd 11.1482 17.0445 17.419
Au 13.7743 15.6866 17.7427
Pd 12.8392 16.7021 15.1276
Au 12.1478 15.7512 19.9134
Pd 13.0277 17.3729 22.134
Au 13.4496 14.6984 22.1923
Pd 14.5459 17.4525 19.8214
Au 11.8556 14.5891 24.4497
Pd 12.5525 16.0749 26.7036
Au 15.1923 14.9947 26.8356
Pd 14.1211 16.2136 24.5797
Pd 13.2011 21.5769 4.37651
Au 14.5018 18.9688 3.96778
Au 11.5086 17.5182 6.11554
Pd 11.8496 20.2022 8.6872
Au 13.1424 17.8641 8.38979
Pd 13.239 19.6642 6.2866
Au 11.5603 18.2939 10.6116
Pd 11.0581 19.9312 12.8274
Au 13.193 18.3457 12.9075
Pd 13.3187 20.4113 11.0054
Au 10.657 18.4036 15.0808
Pd 11.2423 19.978 17.3082
Au 13.4807 18.4243 17.2872
Pd 12.9318 20.1287 15.0999
Au 12.0623 18.5198 19.6504
Pd 11.8989 20.8772 21.0971
Au 14.3644 19.6508 21.4359
Pd 13.62 20.6622 18.9236
Au 15.1076 18.6598 23.9445
Pd 14.6312 20.9136 25.3431
Au 15.7574 17.5708 26.3822
Pd 13.8579 21.9561 22.8609
Pd 11.9971 23.9965 5.00567
Au 14.6959 23.8053 4.78597
Au 11.8804 22.1429 6.80343
Pd 10.9724 23.7862 8.83225
Au 13.3358 22.4522 9.15977
Pd 13.3363 24.3621 7.25609
Au 11.0249 21.8794 10.8179
Pd 10.318 23.5535 12.8596
Au 12.6623 22.1744 13.1233
Pd 12.4748 24.1282 11.13
Au 10.6283 21.6189 15.0048
Pd 10.0565 23.7238 16.6981
Au 12.758 22.3249 16.8289
Pd 11.9861 24.0683 14.9263
Au 10.9607 22.3016 18.8457
Pd 10.6137 24.7002 20.2193
Au 13.2754 23.1507 20.0065
Pd 12.2009 24.6996 18.0513
Au 11.6384 23.3197 22.256
Pd 11.3547 25.7826 22.9419
Au 13.1462 24.324 24.2307
Pd 12.9543 25.7172 20.8159
Pd 13.9757 5.22709 7.33524
Pd 14.2726 4.67141 9.98044
Pd 16.5914 5.31062 8.70109
Pd 14.7125 4.76968 13.4777
Pd 16.4991 4.80654 11.4291
Pd 15.1573 4.83578 16.9323
Pd 16.9546 4.94798 15.0597
Pd 14.8483 5.22064 20.6631
Pd 17.0137 5.23952 18.9219
Pd 14.467 5.40544 24.1363
Pd 16.823 5.7129 22.6444
Pd 15.7289 9.41262 5.60535
Au 16.2935 6.93932 6.6413
Au 14.4228 7.20985 8.86883
Pd 14.6521 9.27229 10.5758
Au 16.8363 7.37814 10.4202
Pd 16.5341 9.11891 8.30499
Au 14.474 6.69912 11.6601
Pd 14.6446 8.86111 13.3908
Au 16.6567 6.87569 13.1914
Pd 17.0555 9.4894 12.1926
Au 14.8184 6.8494 15.2221
Pd 14.8479 9.05414 16.9121
Au 16.9599 7.09005 16.8969
Pd 16.8191 9.07192 14.983
Au 14.9274 6.96013 18.6281
Pd 14.5855 8.9672 20.4237
Au 16.8803 7.40788 20.6412
Pd 16.9388 9.33527 18.7348
Au 14.4952 7.19137 22.3648
Pd 14.2889 8.14807 24.9117
Au 16.5956 6.75995 25.0948
Pd 16.6562 8.6103 23.192
Pd 16.9001 13.9174 4.26764
Au 17.7213 11.4514 5.07533
Au 15.9858 11.6155 7.18696
Pd 16.2339 13.6639 9.00155
Au 16.8123 11.2131 10.0781
Pd 17.9202 13.6445 6.82961
Au 14.8707 11.3949 12.2504
Pd 15.1125 13.5413 13.9189
Au 17.2663 11.6222 13.9027
Pd 17.0568 13.3789 11.7871
Au 14.851 11.0553 15.0925
Pd 15.0453 13.1567 16.9946
Au 16.9647 11.2679 16.8251
Pd 17.4244 13.7431 15.5597
Au 14.7259 11.0357 18.7747
Pd 14.5317 12.3074 21.3598
Au 16.6488 10.5609 21.2402
Pd 16.7415 12.6229 19.3836
Au 14.3071 10.0451 22.9969
Pd 16.0807 12.4837 26.3503
Au 16.3791 9.55597 25.7644
Pd 16.4624 11.5082 23.8625
Pd 17.1684 18.2785 4.07477
Au 18.6394 15.9034 3.90124
Au 17.0543 16.2342 6.04441
Pd 16.2604 17.7306 8.3322
Au 18.0641 15.767 8.65336
Pd 18.5352 18.3806 6.44306
Au 16.3567 15.9097 10.771
Pd 14.7278 16.1739 12.9699
Au 17.3079 15.5288 13.4601
Pd 18.1122 18.0572 10.5635
Au 15.4156 15.6506 15.5817
Pd 16.0381 17.5852 17.524
Au 16.7962 14.9824 17.8748
Pd 17.5839 17.5181 15.3214
Au 15.2081 14.8201 20.0656
Pd 15.586 16.4241 22.318
Au 16.5741 13.6406 22.1951
Pd 17.2263 16.848 19.9521
Au 16.779 15.0701 24.7104
Pd 18.1177 16.3526 26.6818
Au 18.3485 13.7628 26.6627
Pd 19.8521 16.0995 24.3471
Pd 15.9384 21.3147 4.3016
Au 18.6064 20.5086 4.63904
Au 16.0456 19.4684 6.23271
Pd 14.7869 20.0734 8.64472
Au 17.7494 20.0175 8.6311
Pd 17.3877 21.8236 6.63758
Au 14.7856 18.119 10.644
Pd 14.8887 20.4745 13.1776
Au 16.5891 18.2198 12.7606
Pd 16.3621 20.3688 10.9365
Au 15.0116 18.3288 14.994
Pd 15.3296 20.4069 16.7888
Au 18.0021 19.5451 17.2011
Pd 17.0403 20.2025 14.7054
Au 16.2505 19.6038 19.3305
Pd 15.7267 21.8969 20.6605
Au 16.9848 18.7253 21.8297
Pd 17.9021 21.7574 18.7647
Au 17.6335 17.6215 24.3063
Pd 17.1602 19.8625 25.7421
Au 19.7172 18.3732 26.1694
Pd 16.3512 20.9898 23.2392
Pd 16.0404 24.2998 7.05781
Au 17.3932 23.5416 4.72771
Au 14.6516 21.9804 6.68031
Pd 14.7608 24.6946 9.53926
Au 16.176 22.4231 9.02089
Pd 17.5729 24.7536 9.312
Au 14.8615 22.6854 11.4672
Pd 14.0368 24.5564 13.276
Au 16.9559 22.4873 13.2765
Pd 16.3067 24.9018 11.7093
Au 14.7575 22.4782 15.0008
Pd 14.1875 24.7785 16.2634
Au 17.4056 22.4407 16.1638
Pd 16.307 24.7539 14.5673
Au 15.2535 22.7985 18.0205
Pd 14.7296 25.3116 18.9287
Au 17.0282 24.1653 19.8294
Pd 16.7248 24.9174 17.19
Au 14.9361 24.2237 21.8745
Pd 14.155 26.4361 23.013
Au 15.6249 23.3717 24.4763
Pd 16.0644 26.448 20.9277
Pd 19.2005 4.75037 7.8591
Pd 18.8924 5.46368 10.3724
Pd 21.413 4.86601 9.50175
Pd 18.6634 4.9839 13.0433
Pd 21.088 5.61201 12.0877
Pd 18.9155 5.18709 16.9156
Pd 20.7124 5.17814 14.8041
Pd 18.9537 5.50461 20.7693
Pd 20.9193 5.38943 18.6926
Pd 18.9993 5.78941 24.2124
Pd 21.0836 5.63885 22.3451
Pd 18.3343 8.9772 6.14939
Au 18.9346 6.41648 5.82787
Au 18.5918 7.26424 8.28864
Pd 18.8434 9.37382 10.0182
Au 20.856 7.4139 9.9512
Pd 20.5676 9.18068 7.84586
Au 19.1169 7.56833 12.1142
Pd 19.3062 9.69581 13.9236
Au 21.2719 7.71806 13.8848
Pd 21.0634 9.59483 11.755
Au 18.7657 7.06773 14.8673
Pd 18.888 9.2735 16.7331
Au 20.7831 7.24468 16.6539
Pd 21.4548 9.86803 15.7011
Au 18.9296 7.31179 18.7412
Pd 19.0784 9.50336 20.5068
Au 21.0546 7.45063 20.4341
Pd 20.9919 9.41827 18.4606
Au 19.0817 7.61044 22.422
Pd 18.7506 8.38092 25.0778
Au 21.2004 7.44114 24.2561
Pd 21.2416 9.37081 22.3808
Pd 19.6445 13.538 4.77579
Au 20.3104 10.9283 5.61216
Au 18.585 11.1161 7.82608
Pd 18.8218 13.2391 9.62162
Au 20.8064 11.357 9.60991
Pd 20.5145 13.0914 7.39091
Au 19.0782 11.4897 11.7904
Pd 19.3186 13.6108 13.5134
Au 21.3205 11.7226 13.5543
Pd 21.076 13.4925 11.3701
Au 19.4759 11.8184 15.684
Pd 19.4467 13.951 17.3784
Au 21.6093 11.9689 17.4998
Pd 21.5102 13.8368 15.3939
Au 19.0807 11.4911 18.5967
Pd 18.8043 12.2966 21.3454
Au 21.1915 11.4206 20.4664
Pd 21.3508 13.9056 19.3495
Au 18.8184 10.3374 23.2093
Pd 18.5007 11.1905 25.7393
Au 20.9213 10.0269 25.0953
Pd 20.9758 12.0494 23.198
Pd 20.0095 18.1022 4.2208
Au 21.4593 15.7004 4.46853
Au 19.7532 15.7709 6.48285
Pd 19.9447 17.8179 8.62238
Au 20.755 15.2026 9.1705
Pd 21.4849 17.9069 6.47127
Au 19.0641 15.4459 11.3279
Pd 19.3158 17.5461 13.0975
Au 21.2884 15.582 13.1571
Pd 21.0795 17.4258 11.0224
Au 19.4962 15.6944 15.2776
Pd 18.7762 16.7722 17.7101
Au 21.4379 15.8956 17.3146
Pd 21.5092 17.5548 15.0499
Au 18.6109 14.536 19.8564
Pd 18.1151 15.695 22.3071
Au 20.4605 14.5316 21.865
Pd 20.5304 16.5038 19.8163
Au 18.7957 13.3842 24.0133
Pd 20.641 15.2058 26.6859
Au 20.7644 12.6934 25.955
Pd 21.1283 18.5798 23.9794
Pd 19.9139 22.6397 5.69146
Au 21.3722 20.3209 4.84045
Au 20.1124 20.3958 7.1863
Pd 18.1267 22.4716 10.8802
Au 20.0637 20.0889 10.1858
Pd 21.6889 22.1493 9.32921
Au 18.644 20.2223 12.4871
Pd 19.6541 22.1526 14.3622
Au 21.4148 19.5521 12.7256
Pd 20.6879 22.1339 11.9145
Au 19.5612 19.4368 15.0047
Pd 20.0651 21.4936 16.9426
Au 20.7111 18.6068 17.4973
Pd 22.0031 20.2359 15.3408
Au 19.6035 17.7714 21.9746
Pd 18.4147 20.971 21.255
Au 21.0136 20.0715 21.8094
Pd 19.0155 18.9124 19.6255
Au 18.854 19.9607 23.6944
Pd 18.0534 22.3486 24.9118
Au 20.2782 20.99 25.6365
Pd 20.1273 22.3625 23.1418
Pd 18.6381 24.6844 6.82475
Au 21.2077 24.2709 7.58768
Au 19.1599 22.61 8.43436
Pd 18.5563 26.5597 11.0273
Au 20.1624 24.3412 10.3043
Pd 19.7742 26.2936 8.66102
Au 18.7425 24.5001 12.6442
Pd 17.2831 26.7916 13.3298
Au 21.2403 24.5165 13.5103
Pd 19.7802 26.798 14.0283
Au 18.847 24.6451 15.2936
Pd 17.7598 26.9618 15.9502
Au 23.2041 22.1187 16.6687
Pd 21.2744 23.8781 16.0699
Au 19.1734 24.0394 17.9369
Pd 18.1225 26.4317 18.8507
Au 19.6891 23.2147 20.5079
Pd 20.1397 26.3667 16.9392
Au 17.5385 23.2842 22.3821
Pd 16.6958 25.6118 23.4018
Au 19.1419 24.6931 23.9435
Pd 18.6345 25.6397 21.4324
Pd 21.1634 6.5188 7.3886
Pd 23.5499 5.10533 11.2083
Pd 23.0786 8.41829 7.01013
Pd 23.2308 5.82005 13.8292
Pd 25.1259 7.75885 13.4549
Pd 22.7317 5.36439 16.5408
Pd 25.2262 6.12378 15.6306
Pd 23.0095 5.56477 20.3024
Pd 24.7563 5.55495 18.2117
Pd 23.1798 7.41509 22.1869
Pd 24.99 7.46055 20.0646
Pd 20.8821 8.28298 5.37223
Au 22.81 10.1857 5.0034
Au 23.3929 6.6793 9.06081
Pd 22.7787 9.39164 9.56776
Au 25.4149 6.97115 10.859
Pd 25.2107 8.69188 8.76964
Au 22.9838 7.62167 11.7137
Pd 23.1942 9.72773 13.5215
Au 26.9163 9.80291 13.1514
Pd 24.9061 9.55869 11.3374
Au 23.3608 7.91097 15.6581
Pd 25.2692 9.81894 15.289
Au 25.5391 8.04611 17.4683
Pd 25.02 11.6957 13.1781
Au 22.9105 7.41482 18.3396
Pd 23.6386 10.0341 17.5064
Au 27.1035 10.1373 17.137
Pd 25.4521 12.1604 17.2184
Au 23.124 9.38991 20.2451
Pd 23.361 9.16567 24.17
Au 25.2558 9.27394 21.9956
Pd 25.6278 10.178 19.3835
Pd 22.2246 12.8441 5.248
Au 24.8942 10.3498 6.65714
Au 22.4689 11.1361 7.45359
Pd 22.7873 13.3379 9.16641
Au 24.7998 11.3784 9.14067
Pd 24.3422 12.9794 6.93239
Au 23.0553 11.5844 11.3145
Pd 23.2666 13.7263 13.1885
Au 26.7221 11.4745 11.0672
Pd 25.0103 13.559 10.8601
Au 23.4465 11.9058 15.4155
Pd 23.4873 14.0741 17.4791
Au 27.105 11.7589 14.9864
Pd 25.3909 13.8186 14.9847
Au 23.6443 12.0547 19.4489
Pd 23.0272 13.6702 21.6451
Au 25.6299 12.1393 21.455
Pd 25.5222 13.8873 19.3288
Au 23.3476 11.1406 22.3609
Pd 23.0486 11.7383 25.0592
Au 25.44 10.9169 24.0077
Pd 24.6195 13.3947 23.7937
Pd 22.7336 18.0589 4.20099
Au 24.0578 16.9101 6.25703
Au 22.4239 14.9644 6.8783
Pd 22.7483 16.9399 8.75542
Au 24.7295 15.1497 8.47336
Pd 24.8792 18.4476 8.30022
Au 23.0746 15.4628 10.9944
Pd 25.2792 15.4816 12.7472
Au 26.9888 13.4204 12.836
Pd 25.3445 16.8362 10.4183
Au 23.5597 15.7305 15.2868
Pd 23.7878 17.0875 17.8392
Au 25.8622 15.3689 17.1023
Pd 26.0602 16.829 14.8583
Au 23.3324 15.6844 19.9867
Pd 22.1418 16.656 22.371
Au 25.4288 14.966 21.7451
Pd 25.886 16.559 19.521
Au 21.9402 14.4159 24.0901
Pd 22.311 16.8206 25.5519
Au 23.2817 14.2657 26.1883
Pd 24.2193 15.9696 23.9484
Pd 22.3913 21.9553 6.77168
Au 23.6379 19.619 6.20463
Au 22.2606 19.5702 8.58437
Pd 23.4739 21.3317 11.2281
Au 25.8453 19.8798 10.3558
Pd 24.3649 21.1421 8.50558
Au 23.4948 18.7082 10.8318
Pd 24.0461 19.9999 13.4688
Au 25.9537 18.3165 12.5643
Pd 26.1716 21.2172 12.5742
Au 24.1177 18.5144 15.6411
Pd 23.0501 19.7072 17.8364
Au 26.2829 18.1042 17.2757
Pd 23.3978 17.3524 13.1006
Au 24.6158 17.5504 21.6834
Pd 22.4021 18.3691 20.1061
Au 23.7651 18.6405 23.9947
Pd 25.0328 19.1189 19.5005
Au 23.757 20.1451 21.7027
Pd 22.3858 21.0292 23.9259
Au 22.3194 19.4228 26.162
Pd 23.8847 21.6989 19.4182
Pd 22.3412 25.8548 9.44728
Au 23.7352 23.7469 8.60334
Au 22.6799 23.8943 11.2403
Pd 21.124 26.446 11.6965
Au 25.561 22.7024 10.3365
Pd 24.8645 23.5755 12.7732
Au 22.6976 22.3294 13.8231
Pd 22.1234 26.4258 15.158
Au 26.4532 19.6151 14.8986
Pd 24.7687 25.2511 10.5935
Au 25.2962 22.083 14.9798
Pd 23.8389 24.4121 15.2657
Au 25.4994 20.7086 17.2863
Pd 23.4756 25.8634 12.8996
Au 21.7405 23.2616 18.6516
Pd 20.6592 25.6513 19.5538
Au 24.5695 23.8659 17.9786
Pd 22.6379 25.6024 17.6465
Au 21.0018 20.8041 19.3297
Pd 21.1081 24.7775 22.0984
Au 22.2994 22.4818 21.4425
Pd 23.17 24.7031 20.2048
