665
Atoms. Timestep: 20187
Pd 5.54864 5.70844 7.45401
Pd 5.50874 5.64238 11.2886
Pd 5.49339 5.63014 15.2358
Pd 5.51451 5.64413 19.1829
Pd 5.55992 5.71205 23.0172
Au 5.55571 7.55024 5.58304
Au 5.3713 7.49712 9.36985
Pd 5.40346 9.42568 7.43315
Au 5.34594 7.43637 13.2653
Pd 5.33206 9.38601 11.32
Au 5.34881 7.43725 17.2057
Pd 5.31512 9.34803 15.2351
Au 5.37979 7.49989 21.1009
Pd 5.33774 9.38795 19.1499
Au 5.56945 7.55489 24.8871
Pd 5.41469 9.4295 23.0364
Au 5.5226 11.3262 5.54558
Au 5.30491 11.3526 9.34078
Pd 5.38679 13.2803 7.38053
Au 5.24793 11.322 13.2744
Pd 5.27854 13.2868 11.2939
Au 5.25082 11.3232 17.1949
Pd 5.24585 13.2769 15.2341
Au 5.31344 11.3556 21.1281
Pd 5.28438 13.2894 19.1743
Au 5.53662 11.3305 24.9233
Pd 5.39816 13.2838 23.0877
Au 5.51698 15.23 5.5354
Au 5.29312 15.2303 9.30506
Pd 5.38984 17.1801 7.3806
Au 5.21756 15.2321 13.2628
Pd 5.28239 17.1758 11.2927
Au 5.2205 15.2335 17.2038
Pd 5.24967 17.1893 15.2319
Au 5.30204 15.2336 21.163
Pd 5.28807 17.1773 19.1739
Au 5.53094 15.234 24.9321
Pd 5.40192 17.1839 23.0871
Au 5.52867 19.1349 5.54776
Au 5.31226 19.1096 9.33905
Pd 5.42474 21.0295 7.43327
Au 5.2558 19.1442 13.2696
Pd 5.34422 21.0817 11.3118
Au 5.2582 19.1422 17.1935
Pd 5.32602 21.1157 15.2329
Au 5.32087 19.1117 21.1269
Pd 5.34886 21.0781 19.1476
Au 5.54421 19.1376 24.9218
Pd 5.42594 21.0383 23.0344
Au 7.446 24.7829 5.57375
Au 5.38964 22.9691 9.35369
Pd 5.60317 22.9109 5.58343
Au 5.35976 23.0255 13.2627
Pd 5.52249 24.8142 11.2827
Au 5.36351 23.0276 17.2023
Pd 5.51136 24.8333 15.2315
Au 5.39462 22.9669 21.0977
Pd 5.53277 24.8214 19.1788
Au 5.58455 22.9134 24.8843
Pd 5.57823 24.7552 23.0133
Pd 7.42452 5.70625 5.57535
Pd 7.38894 5.55651 9.35726
Pd 9.33031 5.55424 7.41301
Pd 7.3393 5.5175 13.2644
Pd 9.29586 5.46046 11.3058
Pd 7.34218 5.51838 17.2045
Pd 9.26806 5.43767 15.2331
Pd 7.39753 5.55924 21.1115
Pd 9.3016 5.46228 19.1603
Pd 7.43842 5.71101 24.8932
Pd 9.34165 5.55798 23.0529
Pd 7.40778 9.42334 5.42587
Au 9.34218 7.49248 5.3931
Au 7.42712 7.54651 7.45169
Pd 7.33131 9.43551 9.38369
Au 9.35547 7.42742 9.37731
Pd 9.36118 9.43314 7.35082
Au 7.34882 7.46355 11.3206
Pd 7.27684 9.38376 13.2799
Au 9.31159 7.36026 13.2752
Pd 9.31474 9.3854 11.33
Au 7.33133 7.43909 15.234
Pd 7.27967 9.38471 17.1874
Au 9.31444 7.36117 17.19
Pd 9.29028 9.35278 15.2322
Au 7.3545 7.46537 19.1474
Pd 7.33975 9.43838 21.0832
Au 9.36398 7.4302 21.0877
Pd 9.32037 9.3873 19.1342
Au 7.43834 7.55024 23.0159
Pd 7.42199 9.42781 25.041
Au 9.35656 7.49709 25.0718
Pd 9.37264 9.43681 23.1132
Pd 7.3596 13.278 5.40487
Au 9.31748 11.3479 5.32229
Au 7.36433 11.3539 7.38458
Pd 7.28211 13.2909 9.3392
Au 9.32017 11.3596 9.33748
Pd 9.32102 13.2886 7.29722
Au 7.23367 11.3533 11.3252
Pd 7.20299 13.2873 13.2744
Au 9.25393 11.3324 13.2795
Pd 9.25321 13.2901 11.3045
Au 7.20178 11.3312 15.2333
Pd 7.20577 13.2887 17.1909
Au 9.25668 11.3335 17.184
Pd 9.21809 13.2827 15.2312
Au 7.23926 11.3554 19.141
Pd 7.29061 13.2937 21.1262
Au 9.32867 11.3624 21.1257
Pd 9.25876 13.2922 19.1581
Au 7.37569 11.3575 23.0815
Pd 7.37394 13.2822 25.0606
Au 9.33199 11.3523 25.141
Pd 9.33258 13.292 23.1653
Pd 7.36265 17.1794 5.40457
Au 9.28551 15.2264 5.30638
Au 7.34944 15.2286 7.36542
Pd 7.28576 17.1661 9.3394
Au 9.29618 15.2267 9.30911
Pd 9.32604 17.1634 7.29665
Au 7.205 15.2291 11.3027
Pd 7.20659 17.1735 13.2725
Au 9.22048 15.2282 13.2684
Pd 9.25689 17.165 11.3036
Au 7.16705 15.2311 15.2318
Pd 7.20941 17.1737 17.19
Au 9.22327 15.2292 17.1931
Pd 9.22173 17.1747 15.2301
Au 7.21071 15.2315 19.1622
Pd 7.29436 17.1696 21.1256
Au 9.3045 15.2297 21.1529
Pd 9.26247 17.1666 19.1574
Au 7.36092 15.2319 23.0994
Pd 7.37771 17.1824 25.0599
Au 9.30034 15.2305 25.1555
Pd 9.33633 17.1681 23.1646
Pd 7.42653 21.0165 5.4315
Au 9.32983 19.0996 5.31953
Au 7.37321 19.0998 7.38527
Pd 7.34423 21.0244 9.37895
Au 9.32847 19.0944 9.33622
Pd 9.37258 21.0198 7.34872
Au 7.24088 19.1073 11.3221
Pd 7.28757 21.0762 13.2765
Au 9.26123 19.1238 13.2773
Pd 9.32651 21.0698 11.3275
Au 7.20902 19.1299 15.2309
Pd 7.29073 21.0766 17.1849
Au 9.26404 19.1244 17.1823
Pd 9.30129 21.1037 15.2295
Au 7.24672 19.1072 19.1396
Pd 7.35089 21.0248 21.081
Au 9.33613 19.097 21.1243
Pd 9.33153 21.0711 19.1318
Au 7.38318 19.1064 23.0801
Pd 7.43328 21.0368 25.0387
Au 9.33949 19.1086 25.1395
Pd 9.3838 21.0233 23.1109
Pd 5.59427 24.7806 7.45128
Au 9.33772 22.9679 5.38115
Au 7.44682 22.9143 7.45011
Pd 7.4132 24.9049 9.36219
Au 9.37364 23.0281 9.37656
Pd 9.34638 24.9107 7.40857
Au 7.36373 22.9948 11.3166
Pd 7.356 24.9406 13.2586
Au 9.32677 23.0952 13.2722
Pd 9.31884 24.9957 11.3063
Au 7.34586 23.021 15.2305
Pd 7.36049 24.9426 17.2001
Au 9.32929 23.0963 17.1864
Pd 9.28597 25.0187 15.2281
Au 7.3693 22.9967 19.144
Pd 7.41599 24.9036 21.1074
Au 9.37891 23.029 21.0844
Pd 9.32012 24.996 19.1559
Au 7.45319 22.9136 23.0129
Pd 7.45691 24.7538 24.8892
Au 9.37144 22.9639 25.0686
Pd 9.36027 24.9022 23.0487
Pd 11.259 5.63565 5.52985
Pd 11.2816 5.45813 9.31713
Pd 13.2373 5.51058 7.3576
Pd 11.2562 5.38868 13.2628
Pd 13.2414 5.38634 11.2747
Pd 11.2591 5.38959 17.2005
Pd 13.234 5.34881 15.2302
Pd 11.2902 5.46092 21.146
Pd 13.2472 5.38821 19.1856
Pd 11.2732 5.64022 24.9331
Pd 13.2489 5.51427 23.1025
Pd 11.2945 9.37904 5.34878
Au 13.2375 7.42712 5.36203
Au 11.2958 7.45892 7.36775
Pd 11.3104 9.38307 9.33137
Au 13.2533 7.35562 9.3277
Pd 13.2573 9.37674 7.2906
Au 11.296 7.32825 11.3151
Pd 11.2864 9.31128 13.2762
Au 13.2502 7.26557 13.2664
Pd 13.2595 9.30894 11.3002
Au 11.2781 7.29114 15.2312
Pd 11.2892 9.31225 17.1852
Au 13.253 7.26651 17.1931
Pd 13.2534 9.26674 15.2293
Au 11.3017 7.33011 19.1472
Pd 11.319 9.38585 21.1298
Au 13.2619 7.3584 21.1316
Pd 13.2652 9.31084 19.1582
Au 11.3073 7.46261 23.0943
Pd 11.309 9.38354 25.1124
Au 13.2521 7.43168 25.0972
Pd 13.2689 9.3804 23.1677
Pd 11.2726 13.2801 5.2908
Au 13.251 11.3126 5.25948
Au 11.3048 11.3485 7.24803
Pd 11.2894 13.2876 9.26543
Au 13.2621 11.3276 9.26544
Pd 13.2566 13.2798 7.21226
Au 11.2885 11.3296 11.3029
Pd 11.2513 13.2775 13.2647
Au 13.2529 11.2865 13.2644
Pd 13.2527 13.275 11.2605
Au 11.2653 11.3031 15.2303
Pd 11.2541 13.2784 17.1949
Au 13.2558 11.2874 17.1932
Pd 13.2428 13.2639 15.2283
Au 11.2942 11.3316 19.1575
Pd 11.2979 13.2906 21.1943
Au 13.2708 11.3304 21.1921
Pd 13.2584 13.2769 19.1962
Au 11.3165 11.3522 23.2123
Pd 11.2872 13.2844 25.1687
Au 13.2656 11.3172 25.1979
Pd 13.268 13.2838 23.2444
Pd 11.2788 17.1661 5.28962
Au 13.2454 15.2212 5.22434
Au 11.2871 15.2239 7.21514
Pd 11.2934 17.1623 9.26444
Au 13.2559 15.2232 9.22748
Pd 13.26 17.1655 7.21125
Au 11.2659 15.2257 11.2757
Pd 11.2551 17.1749 13.2638
Au 13.2434 15.2243 13.2502
Pd 13.2565 17.1725 11.2595
Au 11.2391 15.2267 15.2293
Pd 11.2578 17.1756 17.1941
Au 13.2462 15.2251 17.2057
Pd 13.2466 17.1855 15.2275
Au 11.2715 15.2274 19.1831
Pd 11.3016 17.165 21.1935
Au 13.2644 15.2259 21.2283
Pd 13.2621 17.1741 19.1954
Au 11.2981 15.2282 23.2438
Pd 11.291 17.1727 25.168
Au 13.259 15.2267 25.2312
Pd 13.2717 17.1688 23.2436
Pd 11.2999 21.0754 5.34716
Au 13.2555 19.1351 5.25801
Au 11.3126 19.1013 7.24594
Pd 11.3222 21.0676 9.32882
Au 13.2695 19.1192 9.26335
Pd 13.267 21.0703 7.28747
Au 11.2964 19.1217 11.3013
Pd 11.2981 21.1406 13.2741
Au 13.2608 19.1619 13.2628
Pd 13.2713 21.1385 11.2976
Au 11.2728 19.15 15.2286
Pd 11.3005 21.1414 17.1827
Au 13.2634 19.1626 17.1916
Pd 13.2651 21.1823 15.2271
Au 11.3016 19.1231 19.156
Pd 11.3301 21.0697 21.1274
Au 13.2782 19.1213 21.1905
Pd 13.2766 21.14 19.1558
Au 11.3239 19.1042 23.2108
Pd 11.3202 21.0737 25.11
Au 13.2731 19.1363 25.1963
Pd 13.2801 21.0722 23.1653
Pd 11.2762 24.81 5.52133
Au 13.2531 23.017 5.35785
Au 11.3078 22.9919 7.36313
Pd 11.3018 24.9931 9.31412
Au 13.2676 23.0911 9.32343
Pd 13.2547 24.9343 7.35165
Au 11.3131 23.123 11.3133
Pd 11.2772 25.0637 13.2609
Au 13.2665 23.1826 13.2639
Pd 13.2611 25.0613 11.2711
Au 11.2935 23.1616 15.2282
Pd 11.2777 25.0641 17.196
Au 13.2685 23.1834 17.19
Pd 13.254 25.1004 15.2271
Au 11.3168 23.1245 19.1437
Pd 11.3089 24.9946 21.1417
Au 13.277 23.0933 21.1282
Pd 13.266 25.0626 19.1814
Au 11.3222 22.9938 23.0911
Pd 11.2916 24.8171 24.929
Au 13.267 23.0218 25.0939
Pd 13.2675 24.9383 23.0984
Pd 15.2061 5.61874 5.50866
Pd 15.2088 5.43067 9.28352
Pd 17.1775 5.50678 7.35464
Pd 15.2117 5.34647 13.2495
Pd 17.1791 5.38258 11.2717
Pd 15.2146 5.34741 17.2078
Pd 17.1923 5.34507 15.2272
Pd 15.2176 5.43346 21.1738
Pd 17.185 5.38445 19.1827
Pd 15.2205 5.62326 24.9485
Pd 17.1892 5.51046 23.0996
Pd 15.2096 9.33635 5.32603
Au 17.178 7.42326 5.35904
Au 15.2093 7.42982 7.34447
Pd 15.2126 9.34574 9.30119
Au 17.1681 7.35184 9.32476
Pd 17.165 9.37289 7.28765
Au 15.2121 7.28648 11.2914
Pd 15.2154 9.2644 13.2643
Au 17.1769 7.26184 13.2634
Pd 17.1686 9.30524 11.2972
Au 15.215 7.24311 15.2282
Pd 15.2183 9.26534 17.1912
Au 17.1798 7.26277 17.1901
Pd 17.1804 9.26301 15.2263
Au 15.2179 7.28835 19.165
Pd 15.2213 9.34855 21.1543
Au 17.1768 7.35463 21.1287
Pd 17.1744 9.30707 19.1554
Au 15.2209 7.43349 23.1118
Pd 15.2242 9.34092 25.1294
Au 17.1926 7.42785 25.0943
Pd 17.1767 9.37663 23.1649
Pd 15.2138 13.2643 5.2521
Au 17.1721 11.3087 5.25648
Au 15.2131 11.3215 7.21042
Pd 15.2164 13.2754 9.22441
Au 17.1669 11.3239 9.26238
Pd 17.1732 13.2766 7.20917
Au 15.2159 11.2983 11.2739
Pd 15.2193 13.2615 13.249
Au 17.1818 11.2827 13.2614
Pd 17.1829 13.2714 11.2574
Au 15.2188 11.268 15.2273
Pd 15.2222 13.2624 17.2047
Au 17.1847 11.2836 17.1903
Pd 17.1986 13.2601 15.2254
Au 15.2217 11.3002 19.1807
Pd 15.2251 13.2781 21.2293
Au 17.1757 11.3267 21.1893
Pd 17.1889 13.2731 19.1934
Au 15.2247 11.3253 23.2442
Pd 15.228 13.2693 25.2015
Au 17.1867 11.3134 25.1951
Pd 17.1852 13.2801 23.2416
Pd 15.2155 17.1775 5.25133
Au 17.1852 15.2194 5.22153
Au 15.2166 15.2211 7.17108
Pd 15.2198 17.1676 9.2234
Au 17.1804 15.2197 9.22431
Pd 17.1764 17.1622 7.20814
Au 15.2197 15.2219 11.2431
Pd 15.2231 17.1831 13.2482
Au 17.1989 15.2205 13.2471
Pd 17.1866 17.1687 11.2565
Au 15.2226 15.2228 15.2265
Pd 15.226 17.1839 17.204
Au 17.2019 15.2213 17.2028
Pd 17.2024 17.1816 15.2246
Au 15.2255 15.2236 19.2098
Pd 15.2288 17.1699 21.2285
Au 17.1895 15.2221 21.2255
Pd 17.1926 17.1703 19.1926
Au 15.2285 15.2244 23.2816
Pd 15.2317 17.1803 25.2007
Au 17.2008 15.2229 25.2284
Pd 17.1889 17.165 23.2408
Pd 15.2208 21.1046 5.32316
Au 17.1791 19.1284 5.25471
Au 15.2193 19.1209 7.2083
Pd 15.2233 21.0973 9.2981
Au 17.1739 19.1153 9.26038
Pd 17.1759 21.0653 7.28485
Au 15.2234 19.1455 11.272
Pd 15.2272 21.1801 13.2619
Au 17.1894 19.1581 13.2596
Pd 17.1796 21.1348 11.2944
Au 15.2266 19.1775 15.2258
Pd 15.23 21.1808 17.189
Au 17.1924 19.1589 17.1888
Pd 17.192 21.1786 15.2239
Au 15.2293 19.147 19.1792
Pd 15.2326 21.0994 21.1519
Au 17.1832 19.1175 21.1878
Pd 17.1859 21.1362 19.1531
Au 15.2322 19.1235 23.2426
Pd 15.2354 21.1087 25.1269
Au 17.1941 19.1325 25.1935
Pd 17.1879 21.0684 23.1625
Pd 15.2244 24.8224 5.50399
Au 17.1928 23.014 5.35534
Au 15.2239 23.0122 7.34062
Pd 15.2267 25.0119 9.27839
Au 17.1828 23.0873 9.32102
Pd 17.1959 24.9314 7.35011
Au 15.2271 23.1572 11.2876
Pd 15.2311 25.0981 13.2457
Au 17.1921 23.179 13.2599
Pd 17.1975 25.0573 11.267
Au 15.2309 23.2022 15.2254
Pd 15.2341 25.0989 17.2042
Au 17.1954 23.1796 17.1871
Pd 17.2116 25.0966 15.2232
Au 15.2333 23.1587 19.1619
Pd 15.2364 25.0145 21.1697
Au 17.192 23.0895 21.1256
Pd 17.2042 25.0589 19.1789
Au 15.2358 23.0153 23.1086
Pd 15.2389 24.8264 24.9444
Au 17.2075 23.018 25.0911
Pd 17.2078 24.9345 23.0956
Pd 19.1534 5.628 5.52393
Pd 19.1361 5.4506 9.31126
Pd 21.0847 5.54295 7.40423
Pd 19.1673 5.38118 13.2568
Pd 21.1249 5.44925 11.2969
Pd 19.1702 5.38211 17.1945
Pd 21.1584 5.42644 15.2241
Pd 19.1449 5.45338 21.1401
Pd 21.1307 5.45104 19.1514
Pd 19.1678 5.63253 24.9273
Pd 21.0964 5.54661 23.0442
Pd 19.1248 9.37138 5.34281
Au 21.0736 7.48113 5.38424
Au 19.1228 7.45135 7.36185
Pd 19.1148 9.37561 9.32545
Au 21.0661 7.41628 9.36847
Pd 21.061 9.42203 7.3419
Au 19.1282 7.3208 11.3092
Pd 19.1446 9.30386 13.2703
Au 21.1156 7.3491 13.2663
Pd 21.1134 9.37425 11.321
Au 19.1519 7.28369 15.2253
Pd 19.1475 9.30475 17.1793
Au 21.1186 7.34998 17.1811
Pd 21.1436 9.34157 15.2233
Au 19.1341 7.32262 19.1413
Pd 19.1236 9.37831 21.1241
Au 21.0748 7.41895 21.0791
Pd 21.1193 9.37597 19.1256
Au 19.1345 7.45504 23.0886
Pd 19.1394 9.37597 25.1068
Au 21.0882 7.4857 25.0633
Pd 21.0729 9.42552 23.1047
Pd 19.1535 13.273 5.2848
Au 21.1051 11.3369 5.31323
Au 19.1209 11.3412 7.24202
Pd 19.1432 13.2805 9.25917
Au 21.1087 11.3485 9.32842
Pd 21.1083 13.2775 7.28808
Au 19.1433 11.3222 11.2969
Pd 19.1872 13.2699 13.2587
Au 21.1808 11.3211 13.2704
Pd 21.1823 13.279 11.2952
Au 19.1723 11.2955 15.2243
Pd 19.1902 13.2707 17.1891
Au 21.1838 11.322 17.1752
Pd 21.2232 13.2711 15.2223
Au 19.1492 11.324 19.1518
Pd 19.1523 13.283 21.1886
Au 21.1176 11.351 21.1172
Pd 21.1883 13.2806 19.1495
Au 19.1329 11.3446 23.2066
Pd 19.1687 13.2769 25.163
Au 21.1202 11.341 25.1325
Pd 21.1205 13.2807 23.1567
Pd 19.1574 17.1612 5.2839
Au 21.1442 15.215 5.29718
Au 19.1464 15.2175 7.20879
Pd 19.1468 17.1551 9.25823
Au 21.1402 15.2159 9.29959
Pd 21.1121 17.1536 7.28723
Au 19.1734 15.2182 11.2695
Pd 19.1909 17.1672 13.2578
Au 21.2215 15.2166 13.2593
Pd 21.186 17.1535 11.2943
Au 19.2059 15.2189 15.2234
Pd 19.1939 17.168 17.1883
Au 21.2246 15.2174 17.1844
Pd 21.2269 17.1629 15.2215
Au 19.1794 15.2198 19.1774
Pd 19.156 17.1574 21.1879
Au 21.1493 15.2183 21.1443
Pd 21.1921 17.1551 19.1487
Au 19.1588 15.2206 23.2381
Pd 19.1725 17.1651 25.1622
Au 21.1594 15.2191 25.1468
Pd 21.1242 17.1568 23.156
Pd 19.1357 21.0621 5.34009
Au 21.1127 19.0933 5.31148
Au 19.1283 19.0935 7.24026
Pd 19.1258 21.0598 9.32273
Au 21.116 19.0833 9.3267
Pd 21.072 21.0089 7.33928
Au 19.1506 19.1141 11.295
Pd 19.1558 21.1333 13.2676
Au 21.1882 19.1122 13.2686
Pd 21.1244 21.0583 11.3184
Au 19.1798 19.1424 15.2226
Pd 19.159 21.134 17.177
Au 21.1913 19.1129 17.1736
Pd 21.1548 21.0926 15.2207
Au 19.1568 19.1156 19.1503
Pd 19.135 21.0621 21.1219
Au 21.1251 19.0856 21.1157
Pd 21.1306 21.0598 19.1232
Au 19.1404 19.0967 23.2051
Pd 19.1506 21.0661 25.1044
Au 21.1277 19.0973 25.1309
Pd 21.0841 21.012 23.1025
Pd 19.1716 24.8056 5.51953
Au 21.0881 22.9487 5.38071
Au 19.1374 22.9831 7.35825
Pd 19.1546 24.9847 9.30676
Au 21.0808 23.0154 9.36494
Pd 21.103 24.8878 7.3998
Au 19.1431 23.1155 11.3056
Pd 19.1859 25.0558 13.2524
Au 21.1305 23.0843 13.2628
Pd 21.1433 24.9832 11.2925
Au 19.1671 23.1542 15.2219
Pd 19.1892 25.0566 17.1906
Au 21.1336 23.085 17.1779
Pd 21.177 25.0076 15.2199
Au 19.1494 23.1169 19.1383
Pd 19.1639 24.987 21.1363
Au 21.0899 23.0177 21.076
Pd 21.1496 24.9847 19.1475
Au 19.1494 22.9862 23.0855
Pd 19.1862 24.8094 24.9234
Au 21.1031 22.9525 25.0602
Pd 21.1151 24.8908 23.0404
Pd 22.988 5.69121 5.56378
Pd 23.0291 5.54175 9.34543
Pd 24.8669 5.6904 7.43942
Pd 23.0844 5.50266 13.2526
Pd 24.9123 5.62415 11.274
Pd 23.0873 5.50352 17.1927
Pd 24.9334 5.61184 15.2212
Pd 23.0378 5.54433 21.0999
Pd 24.9181 5.62578 19.1685
Pd 23.0025 5.69579 24.8818
Pd 24.8784 5.69359 23.0031
Pd 23.0113 9.40867 5.41396
Au 24.86 7.53202 5.56822
Au 22.9917 7.53176 7.43989
Pd 23.0939 9.42063 9.3717
Au 25.0503 7.47865 9.35504
Pd 25.0187 9.40711 7.41818
Au 23.0756 7.44871 11.3087
Pd 23.1541 9.36879 13.2679
Au 25.0813 7.41779 13.2505
Pd 25.096 9.3674 11.3051
Au 23.0989 7.42422 15.2222
Pd 23.1571 9.36962 17.1756
Au 25.0843 7.4186 17.191
Pd 25.1187 9.32935 15.2203
Au 23.0815 7.45041 19.1357
Pd 23.1028 9.42315 21.0718
Au 25.0591 7.48106 21.0864
Pd 25.1019 9.36901 19.1354
Au 23.0034 7.53521 23.0046
Pd 23.0263 9.4128 25.0297
Au 24.8749 7.53619 24.8733
Pd 25.0307 9.41047 23.0223
Pd 23.0669 13.2631 5.39273
Au 24.9004 11.3078 5.53077
Au 23.0615 11.3391 7.37254
Pd 23.1503 13.2759 9.32696
Au 25.1238 11.3338 9.3257
Pd 25.0427 13.2616 7.36552
Au 23.1981 11.3382 11.3131
Pd 23.2353 13.2722 13.2622
Au 25.1866 11.3033 13.2593
Pd 25.1567 13.2683 11.2786
Au 23.2358 11.316 15.2212
Pd 23.2384 13.273 17.1794
Au 25.1896 11.3041 17.1802
Pd 25.1954 13.2577 15.2193
Au 23.2041 11.3399 19.1294
Pd 23.1594 13.2783 21.1148
Au 25.1329 11.3363 21.1138
Pd 25.1627 13.2699 19.16
Au 23.0735 11.3424 23.0702
Pd 23.0819 13.2672 25.0492
Au 24.9152 11.3119 24.9092
Pd 25.0548 13.2649 23.0734
Pd 23.0707 17.1633 5.39186
Au 24.9137 15.2114 5.52042
Au 23.0837 15.2136 7.35313
Pd 23.1541 17.152 9.32612
Au 25.1427 15.212 9.28944
Pd 25.0465 17.1618 7.36467
Au 23.234 15.2143 11.2901
Pd 23.239 17.1572 13.2613
Au 25.2244 15.2128 13.2479
Pd 25.1604 17.1566 11.2778
Au 23.2777 15.2151 15.2203
Pd 23.2421 17.158 17.1785
Au 25.2274 15.2136 17.1897
Pd 25.1991 17.1688 15.2184
Au 23.2401 15.2159 19.1507
Pd 23.1632 17.1544 21.114
Au 25.1518 15.2145 21.1484
Pd 25.1665 17.1582 19.1592
Au 23.0958 15.2168 23.0879
Pd 23.0857 17.1673 25.0484
Au 24.9285 15.2154 24.9179
Pd 25.0585 17.165 23.0726
Pd 23.0226 21.0179 5.41141
Au 24.9079 19.1151 5.52909
Au 23.069 19.0882 7.37085
Pd 23.105 21.0074 9.36915
Au 25.1313 19.0903 9.32405
Pd 25.0299 21.0164 7.41574
Au 23.2055 19.0904 11.3114
Pd 23.1652 21.0608 13.2653
Au 25.194 19.1224 13.2575
Pd 25.1071 21.0577 11.3025
Au 23.2432 19.1142 15.2195
Pd 23.1683 21.0615 17.1731
Au 25.197 19.1232 17.1785
Pd 25.1298 21.0973 15.2177
Au 23.2115 19.092 19.1278
Pd 23.114 21.0096 21.0695
Au 25.1403 19.0926 21.1122
Pd 25.1131 21.0592 19.1329
Au 23.081 19.0913 23.0686
Pd 23.0375 21.0217 25.0274
Au 24.9228 19.119 24.9076
Pd 25.0419 21.0194 23.0199
Pd 23.0061 24.735 5.55935
Au 24.8749 22.891 5.56505
Au 23.0063 22.8955 7.43648
Pd 23.0473 24.8863 9.34119
Au 25.0649 22.9457 9.3516
Pd 24.8847 24.7336 7.43524
Au 23.0903 22.9801 11.3053
Pd 23.1028 24.9269 13.2483
Au 25.0961 23.0081 13.2471
Pd 24.9304 24.8012 11.2698
Au 23.1137 23.0062 15.2188
Pd 23.1059 24.9277 17.1886
Au 25.0991 23.0089 17.1876
Pd 24.9516 24.8151 15.2171
Au 23.0964 22.9816 19.1325
Pd 23.0565 24.8885 21.0961
Au 25.074 22.948 21.0832
Pd 24.9364 24.8028 19.1644
Au 23.0183 22.8985 23.0016
Pd 23.0209 24.7386 24.8781
Au 24.8898 22.8946 24.8702
Pd 24.8968 24.7365 22.9993
