665
Atoms. Timestep: 20671
Pd 14.5932 24.6317 22.367
Pd 15.3254 4.27513 22.2222
Pd 16.3038 13.8433 7.22779
Pd 6.32452 19.2024 8.71236
Pd 22.5063 18.127 8.76548
Au 18.6662 22.7655 5.38153
Au 14.9365 9.6169 8.64597
Pd 10.3603 14.3471 23.5668
Au 8.92662 10.0721 24.2791
Pd 10.0433 9.34908 13.0465
Au 18.1938 11.2232 13.6773
Pd 13.6479 6.76051 15.8431
Au 16.8365 21.3012 6.9296
Pd 15.1272 15.1525 24.2938
Au 16.6116 12.0093 9.11393
Pd 18.7707 13.1802 25.4078
Au 16.7774 3.52928 15.163
Au 16.8174 18.3317 7.24036
Pd 11.6077 12.3486 10.2129
Au 4.63895 11.7055 22.7817
Pd 16.6571 6.75582 19.0145
Au 20.5491 10.0023 14.3935
Pd 25.7732 19.8712 18.8978
Au 13.1521 22.3312 22.024
Pd 13.2636 13.4188 12.1953
Au 9.09674 6.42759 16.4712
Pd 25.3415 12.5157 14.0589
Au 8.38994 23.281 20.0415
Au 15.4004 26.0407 20.3044
Pd 18.9901 13.7625 2.84148
Au 8.51659 7.59195 23.3248
Pd 14.3829 16.7864 19.9687
Au 22.4633 10.4983 6.06702
Pd 24.9287 9.7275 10.6961
Au 25.0552 13.3675 22.4711
Pd 8.87308 11.5472 14.7427
Au 23.7545 23.7873 20.551
Pd 13.1074 18.248 10.6482
Au 15.3059 22.8283 20.3904
Au 4.19856 14.7589 14.3579
Pd 13.3587 9.80581 20.9705
Au 22.3595 21.1229 12.3923
Pd 9.45715 18.5042 21.4209
Au 8.24507 9.09329 8.80525
Pd 10.503 7.83795 9.78038
Au 11.7058 5.91517 8.07777
Pd 14.8714 19.7868 5.91343
Au 22.0505 7.69691 22.3398
Pd 23.9117 13.8191 19.9711
Au 24.5634 9.63927 7.72834
Au 10.613 17.757 4.23965
Pd 13.6577 18.9191 18.2413
Au 15.0805 10.62 3.78648
Pd 7.48486 10.9226 16.9806
Au 17.4958 11.9173 4.16987
Pd 18.4459 17.1861 10.0918
Au 21.2267 25.044 9.76009
Pd 17.8102 9.48094 22.8402
Au 23.6151 7.74885 9.37767
Pd 17.0836 22.1918 13.1249
Pd 14.1337 10.0751 15.5043
Pd 22.9364 13.9614 13.9522
Pd 21.3311 13.9473 25.5529
Pd 19.2377 16.0065 21.6347
Pd 12.7852 13.6553 17.1005
Pd 6.66717 9.78472 14.6774
Pd 3.32468 13.276 12.0554
Pd 17.1539 15.9941 12.2315
Pd 11.5258 13.9499 8.09369
Pd 10.3006 17.7765 26.0125
Pd 19.1161 22.0396 22.4665
Pd 15.3585 10.9519 13.1354
Au 21.3448 16.9683 10.9838
Au 23.3221 6.09605 14.2206
Pd 23.4947 21.5299 14.818
Au 17.6301 10.9775 20.6004
Pd 18.3754 8.4087 20.47
Au 22.0298 4.38461 15.9117
Pd 16.8378 17.376 24.5046
Au 3.62254 12.4245 20.4078
Pd 8.83995 11.2191 21.8074
Au 2.04108 10.826 16.114
Pd 11.9947 25.965 10.1922
Au 23.4179 20.3036 7.25977
Pd 21.105 12.9947 15.7256
Au 16.0872 21.9046 25.8555
Pd 10.8482 9.39136 22.3931
Au 24.5903 22.2718 8.90409
Pd 14.6176 28.1418 16.1444
Au 18.1744 1.87025 16.7316
Pd 8.92068 16.6003 23.3065
Au 21.7707 24.5285 22.273
Pd 22.3727 10.8461 16.9034
Pd 10.8368 22.8195 13.3
Au 19.5916 26.3015 21.4107
Au 21.8322 26.6005 17.0905
Pd 16.7698 6.68087 21.771
Au 20.0893 18.3923 26.4456
Pd 18.4894 5.80927 8.53038
Au 24.015 21.1217 20.5346
Pd 10.2082 11.118 17.211
Au 10.6639 3.94261 12.8665
Pd 6.5289 5.74513 15.9498
Au 6.11701 16.1261 23.3714
Pd 11.0685 22.4885 20.4522
Au 17.0516 26.2053 22.4798
Pd 9.67206 10.4818 10.6151
Au 10.66 12.0365 12.7125
Pd 13.7427 14.5722 6.66171
Au 5.33951 19.3354 14.5616
Pd 5.57683 16.7604 15.7194
Au 15.9582 23.4871 5.45421
Pd 12.7716 11.5675 18.6784
Au 21.6356 17.3598 21.5682
Pd 15.0738 13.0704 4.94447
Pd 20.3114 13.9621 23.0658
Au 8.91136 19.3511 24.1523
Au 14.6142 4.63057 19.6013
Pd 17.7532 24.8066 6.97147
Au 10.3994 3.99696 21.643
Pd 13.3101 16.2178 17.5703
Au 22.6077 7.92549 6.88936
Pd 9.01073 14.4903 7.36446
Au 23.5872 24.7231 17.8301
Pd 12.109 7.99806 11.9315
Au 4.69933 20.2582 10.4766
Pd 17.7295 20.0683 23.5636
Au 20.1097 19.5663 21.7584
Pd 11.3574 15.4584 3.20785
Au 14.2029 26.9866 9.04839
Pd 17.981 15.8839 7.70841
Au 14.0338 7.20152 18.4801
Pd 13.1602 24.215 19.8023
Au 9.29866 19.062 12.3108
Pd 9.33175 15.3706 19.526
Au 19.5245 20.9031 12.7065
Pd 16.0049 8.03873 16.3099
Pd 20.1681 14.6458 6.69642
Au 8.46751 12.1872 19.237
Au 22.5139 13.8093 5.69678
Pd 16.739 26.967 12.237
Au 19.2741 15.8518 25.7716
Pd 21.031 12.2162 10.4772
Au 16.6396 27.111 17.7542
Pd 16.0894 12.6667 24.807
Au 7.70898 17.1885 25.452
Pd 20.2621 12.5989 4.89196
Au 14.7961 19.5463 3.24664
Pd 13.1853 4.35581 17.3498
Au 8.73284 21.608 12.4687
Pd 23.1902 12.6842 24.2045
Au 21.6358 18.7434 13.1021
Pd 16.1397 18.8333 19.4396
Au 16.1209 3.12842 17.9452
Pd 21.4099 25.7056 12.5089
Au 19.8675 15.3496 16.1852
Pd 18.0424 6.07027 15.6419
Au 23.9215 12.1641 11.7091
Pd 6.55942 21.4799 19.3149
Pd 24.4274 19.4139 13.5855
Au 16.8266 14.9132 26.3399
Au 19.6228 18.7395 3.72903
Pd 22.8323 21.0118 25.0682
Au 15.0087 8.67131 5.99833
Pd 24.894 14.6483 12.1532
Au 14.6754 6.07559 11.5792
Pd 21.5487 27.4497 14.6169
Au 25.1005 10.5904 15.971
Pd 13.1809 20.2179 23.5964
Au 6.8541 18.5461 22.774
Pd 19.3431 17.799 23.8303
Au 11.6488 5.49709 10.7786
Pd 19.7769 13.0947 18.319
Au 7.32121 20.8903 6.92943
Pd 19.6111 10.8553 16.7361
Au 11.7001 13.3152 26.0692
Pd 27.0228 18.3493 16.9964
Au 15.625 16.9795 2.79578
Pd 20.0409 17.6151 8.04744
Au 8.00065 3.86938 16.9637
Pd 21.5952 21.889 21.5017
Pd 20.0201 10.2403 19.1893
Pd 9.16263 20.6831 19.6714
Pd 23.6034 22.4518 22.9578
Pd 19.49 3.90254 15.3569
Pd 12.1562 10.8823 3.24433
Pd 15.7131 3.78954 12.6675
Pd 11.8412 23.1429 8.04111
Pd 26.5789 12.6486 11.6834
Pd 20.3273 19.3703 10.646
Pd 20.499 2.89775 17.6127
Pd 22.7737 19.7313 22.6357
Pd 20.7409 6.70969 15.5999
Au 17.4419 17.4938 27.079
Au 6.44033 22.3474 14.7326
Pd 7.8658 16.1058 17.1135
Au 15.2421 17.8333 12.5997
Pd 23.0837 25.2543 14.979
Au 17.0745 10.0382 10.9713
Pd 16.7657 21.1612 4.26345
Au 12.5255 6.10199 25.2076
Pd 8.80026 18.8503 7.82956
Au 10.6884 6.68979 21.7841
Pd 10.6876 20.249 14.5242
Au 26.0468 21.6159 13.9388
Pd 12.8595 16.5028 12.654
Au 3.90896 18.6408 12.3363
Pd 9.72585 19.9595 5.58442
Au 6.98138 15.0524 5.77596
Pd 4.79576 10.4685 16.4223
Au 3.32043 15.9704 12.0391
Pd 25.7551 17.109 12.8601
Au 7.72511 12.5416 5.97924
Pd 15.9691 18.1033 9.98924
Pd 10.6991 10.2043 8.07714
Au 14.0132 21.8851 4.44829
Au 7.37094 23.3043 17.3825
Pd 11.588 20.4577 11.8753
Au 24.8708 21.5476 11.4808
Pd 12.6634 8.69276 7.35693
Au 26.4096 13.1199 16.5544
Pd 24.1056 14.981 7.56385
Au 7.67598 14.5423 24.7003
Pd 14.1415 6.7621 21.126
Au 19.1953 27.258 16.309
Pd 14.1073 8.21211 13.7213
Au 7.05124 6.00182 18.6273
Pd 11.8615 2.07716 16.8779
Au 18.7998 24.1935 9.44342
Pd 19.1702 22.8288 14.6664
Au 24.822 11.7257 18.4234
Pd 18.2395 19.7063 9.00063
Au 27.709 16.5578 14.5823
Pd 8.06587 14.1156 21.9974
Au 11.3322 15.64 5.94966
Pd 8.01566 23.3877 10.505
Pd 10.5617 12.1742 6.36727
Au 11.3748 22.1692 5.30793
Au 14.5217 25.744 11.3531
Pd 5.1566 11.2419 12.5682
Au 27.5193 13.9692 14.075
Pd 17.8073 18.2377 21.6272
Au 19.1356 17.0442 5.63409
Pd 17.876 25.3424 19.3884
Au 21.2348 12.2687 7.66067
Pd 5.817 13.886 12.3005
Au 12.4066 9.81158 10.0118
Pd 15.5436 11.1315 22.5177
Au 14.2977 22.2308 7.26601
Pd 27.0357 19.1255 14.3725
Au 10.9471 13.037 2.42425
Pd 22.7885 20.5993 9.88229
Au 5.52144 21.013 16.8341
Pd 15.4464 19.0925 22.2182
Au 10.2271 5.49145 24.0073
Pd 17.5217 5.02223 23.5657
Au 11.0503 20.3184 25.3479
Pd 8.09469 17.8019 10.256
Pd 13.2152 3.64723 11.9431
Au 13.2428 8.60731 4.07973
Au 11.3457 10.5574 25.6332
Pd 10.5048 22.3901 10.3526
Au 24.1327 12.2415 7.11937
Pd 9.24169 9.0584 15.6051
Au 16.933 6.89144 6.51389
Pd 9.83094 15.2549 26.0202
Au 12.3057 26.8181 15.6723
Pd 24.561 11.2714 21.0236
Au 22.3512 5.94207 11.1239
Pd 7.9248 20.2019 14.5954
Au 20.4218 20.2118 24.2516
Pd 18.0681 12.2393 22.9617
Au 14.4042 11.5123 10.6216
Pd 10.7621 8.07852 24.7943
Au 12.8768 18.2426 21.5531
Pd 19.4647 7.64924 6.78527
Au 11.7473 24.6054 22.1884
Pd 12.752 7.73345 23.0875
Au 4.83285 12.1828 10.0202
Pd 17.1392 4.33608 20.2321
Pd 24.5072 15.5053 17.5017
Au 12.4682 14.6667 19.6669
Au 18.3815 12.0293 6.77507
Pd 13.5541 8.56978 25.4867
Au 19.2099 17.6936 12.6089
Pd 18.5047 13.9877 13.3876
Au 12.9839 17.6269 3.01954
Pd 8.89493 16.8857 5.99882
Au 8.34114 13.4923 16.6589
Pd 9.30162 12.5088 25.2939
Au 15.0335 25.5116 15.8934
Pd 22.8881 20.7576 17.4196
Au 18.6233 22.3577 25.1052
Pd 7.07445 18.9421 19.9798
Au 21.3783 16.2099 24.016
Pd 13.9918 4.74388 9.43545
Au 22.696 9.63764 20.2176
Pd 16.3564 14.3226 3.04125
Au 17.015 18.5189 4.49403
Pd 22.3703 18.4397 25.0352
Au 9.57063 25.1352 17.0695
Pd 10.8106 13.2299 15.3408
Pd 20.7178 12.4742 13.065
Pd 11.2661 18.1651 6.89317
Pd 17.9443 19.9273 26.1675
Pd 22.7908 8.76518 15.1589
Pd 10.8708 19.3784 9.45871
Pd 7.66532 17.6263 14.3129
Pd 13.3637 7.33044 9.56048
Pd 10.0293 6.57215 12.8493
Pd 17.8206 21.8753 10.5562
Pd 17.3155 19.551 11.8447
Pd 9.43973 15.4614 14.9475
Pd 3.31826 17.2711 14.4651
Au 26.5082 19.5444 11.7257
Au 21.4293 15.2373 8.90209
Pd 20.534 22.1022 10.3371
Au 13.9049 15.2734 3.91866
Pd 19.8761 12.2921 20.9577
Au 17.3758 9.33347 4.99293
Pd 22.5785 16.0049 15.6499
Au 25.1593 7.91576 15.245
Pd 17.1571 7.26385 11.5842
Au 11.7677 8.10402 19.7996
Pd 15.4152 19.5878 24.839
Au 21.2428 14.5388 20.4762
Pd 10.6964 17.1581 11.1084
Au 17.2392 18.0739 14.3661
Pd 11.0047 11.8629 23.2957
Au 10.0029 24.8571 11.7111
Pd 14.1592 14.1827 26.5271
Au 13.5215 21.0978 26.1728
Pd 23.2086 16.3959 19.6816
Au 23.2118 16.5988 13.1277
Pd 10.7355 20.6152 22.4754
Pd 11.6292 19.9162 20.0001
Au 6.46265 13.8005 8.18416
Au 11.9744 26.4123 12.8087
Pd 8.34666 20.5754 10.0005
Au 4.49807 14.7798 9.97359
Pd 7.93941 20.9134 21.9518
Au 3.09342 10.4685 18.5554
Pd 14.0681 23.0761 24.4999
Au 13.4445 12.6007 14.6756
Pd 23.2701 6.61282 16.8467
Au 15.7254 5.44693 16.8778
Pd 21.6704 23.2999 13.6098
Au 25.3548 20.3181 16.2805
Pd 13.9229 24.2283 9.21179
Au 7.72877 7.39797 14.0652
Pd 9.06615 22.7138 15.3446
Au 13.7166 1.95077 18.7606
Pd 3.28432 12.9279 17.2764
Au 26.2911 14.2255 19.0795
Pd 12.2129 9.26889 17.2804
Au 24.4975 18.444 20.8267
Pd 12.1967 20.5534 7.24006
Pd 14.7781 9.73188 18.099
Au 24.0562 7.72655 12.214
Au 9.55174 11.507 4.06313
Pd 15.4569 24.2626 18.1684
Au 21.8571 25.6149 19.7655
Pd 14.2275 6.38489 7.16118
Au 10.1118 22.7526 17.9888
Pd 15.0762 22.6734 11.1315
Au 24.826 17.4861 7.87676
Pd 8.59447 4.85904 14.3844
Au 19.7537 27.2546 18.8911
Pd 24.275 23.5673 13.208
Au 6.32091 7.58789 20.6978
Pd 17.3564 23.789 21.5675
Au 17.7326 24.7991 16.5944
Pd 22.3804 10.1169 12.1035
Au 11.2783 26.9445 18.157
Pd 16.8789 4.8551 10.498
Au 6.75038 9.6288 22.4656
Pd 18.4404 13.0028 15.8411
Au 13.4141 21.8425 13.5215
Pd 22.8081 10.1275 23.0411
Pd 20.3648 9.84539 21.8448
Au 20.3289 25.1674 15.0762
Au 23.9633 17.2709 23.2023
Pd 25.8868 14.4845 9.65199
Au 10.9781 20.1023 17.4288
Pd 24.7684 22.3541 18.292
Au 21.869 16.3391 26.6225
Pd 6.62689 11.1499 8.09308
Au 20.3775 8.90266 24.3036
Pd 20.9022 9.4362 8.06581
Au 16.0131 13.3491 11.8562
Pd 10.4587 13.312 21.0119
Au 9.49844 23.0624 22.4713
Pd 20.8376 20.1884 8.13729
Au 19.8708 23.7743 20.47
Pd 14.9218 15.1429 13.5796
Au 20.6758 15.3632 4.18578
Pd 3.36565 15.7824 16.8157
Au 23.2758 7.05899 19.4913
Pd 15.831 16.882 17.5555
Au 12.1403 15.0416 10.445
Pd 19.0992 13.5775 8.85804
Pd 4.70644 19.4804 19.0304
Au 10.936 9.44139 5.24345
Au 17.3301 12.0599 18.1974
Pd 10.472 4.25645 17.6643
Au 10.2451 24.4008 6.35218
Pd 16.3672 23.3474 8.70672
Au 14.9585 6.17797 24.074
Pd 12.3252 24.5558 17.2647
Au 25.3091 19.6994 9.23264
Pd 19.3677 7.12261 22.668
Au 20.1454 24.6752 17.8518
Pd 4.72782 9.95345 20.6533
Au 19.8213 10.0731 5.68942
Pd 24.9521 9.92848 13.3626
Au 7.96373 23.4428 7.75729
Pd 15.312 16.2748 8.11455
Au 12.2383 16.0725 27.2218
Pd 16.9486 14.7642 9.83362
Au 15.6305 13.6966 21.9294
Pd 22.1547 14.4175 11.5337
Au 12.3538 2.52438 14.3043
Pd 14.4232 26.9085 13.7445
Pd 11.6149 17.3423 19.2777
Pd 7.4156 16.5111 20.9503
Pd 15.7483 21.7599 22.9376
Pd 19.1176 10.8689 9.19485
Pd 24.0815 9.00958 17.8316
Pd 12.402 19.6711 4.70591
Pd 9.50186 8.75208 18.231
Pd 8.41831 13.4325 12.8659
Pd 19.6783 22.1495 17.1233
Pd 16.8722 27.3088 14.9742
Pd 11.3084 5.03088 15.2925
Pd 19.5435 14.9343 11.0979
Au 21.1487 5.49103 18.2584
Au 6.82731 14.3726 19.2873
Pd 19.0746 7.2066 17.9332
Au 12.0678 18.0068 16.0742
Pd 12.7074 5.85131 13.3034
Au 5.02352 7.73655 15.248
Pd 17.7009 22.7946 18.8326
Au 17.5032 27.7653 20.3276
Pd 10.562 13.3988 18.2964
Au 5.33311 20.2577 21.4599
Pd 3.15037 17.2945 19.0225
Au 18.9429 19.9028 6.08004
Pd 20.8351 7.77234 19.9993
Au 9.40114 18.2766 16.109
Pd 8.55397 16.1061 12.3863
Au 17.1618 16.3747 19.7715
Pd 7.97135 23.9912 13.2349
Au 18.1622 4.81152 13.0348
Pd 17.9381 2.78017 22.0445
Au 12.0201 6.85624 5.59284
Pd 18.3404 17.6138 17.0927
Pd 8.87457 8.50501 20.8313
Au 16.1143 7.18019 9.10643
Au 14.38 22.8556 16.0423
Pd 19.115 5.87346 20.3216
Au 3.5953 9.63273 14.1233
Pd 14.1622 4.28334 14.8241
Au 13.0187 12.4734 21.3416
Pd 9.56762 14.2209 10.335
Au 5.67807 16.8142 18.5713
Pd 11.5394 6.72393 17.4535
Au 24.9313 23.4019 15.8592
Pd 17.8068 13.8455 20.3797
Au 13.405 13.1284 23.961
Pd 15.6868 20.6981 9.25982
Au 12.6147 26.6144 20.5704
Pd 17.4865 9.37245 7.66642
Au 10.8751 16.134 21.5778
Pd 10.6898 17.4559 13.8276
Au 13.219 10.4018 23.6303
Pd 19.0815 26.2999 11.0607
Au 6.25925 9.89609 10.4119
Pd 18.0379 14.361 5.21764
Pd 14.5639 17.3598 15.1912
Au 6.43611 12.0796 21.0048
Au 10.6981 10.6524 19.9471
Pd 22.9791 14.9156 22.3851
Au 19.8618 4.51126 22.5691
Pd 6.97942 14.9076 14.532
Au 13.8583 11.4623 26.0848
Pd 3.96494 18.5488 16.754
Au 11.1278 2.53581 19.4857
Pd 23.8088 16.0759 10.0892
Au 25.5353 11.8454 9.32723
Pd 21.3732 8.49915 17.5127
Au 15.8742 9.94928 25.0962
Pd 14.331 13.8358 9.22439
Au 4.0403 14.7566 19.2237
Pd 22.842 10.6446 9.37405
Au 6.62027 19.2562 12.0694
Pd 12.7106 5.05813 22.7472
Au 9.14053 18.0098 18.7159
Pd 14.8587 16.8402 26.4239
Au 21.0968 21.6998 5.94172
Pd 16.0912 16.0937 5.43682
Pd 11.5302 22.5917 24.14
Au 9.97153 16.5095 8.66673
Au 16.7862 8.84053 13.7478
Pd 13.1931 11.7434 8.06661
Au 9.92578 24.759 8.99697
Pd 17.515 9.38817 18.1794
Au 10.1323 25.2099 14.5006
Pd 9.87955 2.80141 15.3284
Au 8.74678 22.4567 5.39987
Pd 14.0551 17.5258 23.8454
Au 20.6873 11.5483 24.0485
Pd 19.8261 21.1488 19.6256
Au 19.2155 24.5916 23.4405
Pd 25.2385 15.0718 14.8679
Au 13.4898 20.3244 15.9642
Pd 16.1596 4.75545 7.94247
Au 12.2992 15.7459 24.7208
Pd 12.2832 25.7741 7.5896
Au 19.1979 27.2207 13.5193
Pd 9.44711 14.1934 4.65729
Au 27.4743 15.2525 11.7664
Pd 10.8673 14.6959 12.8158
Pd 23.8606 18.5189 11.1844
Au 20.8988 5.0733 13.3727
Au 18.4284 10.5441 25.1827
Pd 4.92119 8.4198 18.4266
Au 4.88582 17.4594 21.1044
Pd 7.12208 16.564 8.03654
Au 13.8073 12.8919 2.58079
Pd 21.1503 22.7983 24.1998
Au 12.4454 15.3914 15.0174
Pd 23.2986 13.3479 9.40146
Au 12.6136 23.7204 11.5646
Pd 22.0124 23.2042 16.2923
Au 5.4878 11.9686 18.5141
Pd 15.7852 11.1932 6.56129
Au 3.57411 12.2566 14.5862
Pd 6.7854 18.6983 17.066
Au 16.6381 24.0246 24.1806
Pd 7.40259 12.4505 10.548
Au 15.0497 14.708 16.2269
Pd 14.9471 12.1858 17.0714
Au 15.692 2.05926 20.5939
Pd 6.25744 12.4106 14.806
Pd 19.1176 22.1357 7.94469
Pd 12.705 16.5011 8.39251
Pd 5.2832 14.4123 21.589
Pd 15.9531 16.3952 22.1013
Pd 5.74316 16.6379 12.8261
Pd 17.4492 14.6881 17.6562
Pd 18.4568 4.54447 17.8756
Pd 14.1744 20.4494 20.4493
Pd 15.2276 8.5461 22.9754
Pd 12.7973 10.4907 12.6652
Pd 16.793 10.6369 15.8888
Pd 8.61222 10.1258 6.37197
Au 15.1966 24.1103 13.5038
Au 21.4571 18.9106 5.81065
Pd 22.8609 23.3632 10.9298
Au 7.06576 8.22505 17.0072
Pd 12.9991 19.0253 13.6011
Au 15.9311 6.19931 14.0112
Pd 12.0393 5.22107 19.8192
Au 13.3522 15.3026 22.1554
Pd 14.7826 8.81367 11.2831
Au 12.2227 13.2687 4.73528
Pd 16.6987 26.0711 9.32598
Au 13.1434 24.1452 5.71153
Pd 19.3014 26.4986 8.39662
Au 18.454 20.1876 15.2705
Pd 27.0509 15.6789 16.9264
Au 13.8859 26.6309 18.1801
Pd 15.4144 21.3158 18.1778
Au 2.94567 8.48641 16.6495
Pd 14.5849 20.1966 11.6428
Au 21.7522 5.39679 20.965
Pd 26.0594 17.0122 19.096
Pd 13.1121 2.99865 21.1671
Au 9.95868 7.75038 7.11204
Au 22.9228 11.3708 14.3629
Pd 16.1679 12.9727 14.5806
Au 15.0919 25.4077 7.13097
Pd 15.1858 11.7463 19.878
Au 20.3699 24.3675 7.07186
Pd 11.68 22.3609 15.8459
Au 17.2852 20.8599 20.7832
Pd 15.7838 8.95098 20.4072
Au 17.3275 15.6146 15.1155
Pd 18.6813 8.64935 15.7519
Au 20.5537 21.1151 26.5928
Pd 26.2431 17.2191 10.2293
Au 8.63501 3.78913 19.5821
Pd 25.3038 15.7587 21.2944
Au 14.4973 1.96912 16.1156
Pd 10.6658 15.8401 17.2083
Au 17.31 7.55981 24.523
Pd 17.9321 20.2156 18.0291
Au 19.633 6.03525 11.0386
Pd 19.4006 18.3412 19.5016
Pd 18.8145 8.19368 9.6164
Au 28.2665 17.7056 12.2493
Au 5.60315 14.2091 16.8234
Pd 16.9712 24.4381 11.3675
Au 18.2371 16.3231 3.20857
Pd 11.2841 18.089 23.6275
Au 8.29361 20.8176 17.1722
Pd 22.3169 12.3518 21.8124
Au 19.593 15.7597 18.8779
Pd 16.9363 22.2137 16.1014
Au 17.7156 25.0042 13.8999
Pd 11.538 10.6157 14.9973
Au 21.4834 17.2743 17.7453
Pd 24.0302 18.2656 17.8817
Au 23.7085 15.2162 24.9519
Pd 7.77858 10.6974 12.4924
Au 13.9854 18.8438 8.22451
Pd 20.6841 15.5543 13.5896
Au 6.16058 21.9583 12.0015
Pd 21.3392 8.40843 10.457
Au 11.4813 7.85788 14.8321
Pd 9.7662 21.506 7.85197
Pd 7.11526 9.81105 19.3993
Au 19.5155 23.8105 12.1187
Au 13.6557 17.3446 5.7419
Pd 18.4315 12.4285 11.2482
Au 21.5114 7.72809 13.0377
Pd 13.1862 10.8878 5.6753
Au 5.68028 8.48871 12.6067
Pd 23.7667 13.153 16.3959
Au 16.0352 0.600882 18.1475
Pd 21.0222 20.832 14.9869
Au 8.21363 8.1578 11.4104
Pd 19.6128 9.84414 11.8262
Au 18.1331 1.86258 19.373
Pd 20.4541 19.6247 17.3099
Au 8.12736 5.68134 21.4672
Pd 21.9565 22.7255 18.9382
Au 22.1803 16.475 6.47539
Pd 25.0682 17.5363 15.5111
Au 5.23287 17.3805 10.2872
Pd 12.9013 18.5132 26.029
Au 7.09598 15.2519 10.3727
Pd 14.7045 15.8573 10.8318
Pd 15.1378 14.3076 19.0571
Au 17.7485 14.9045 23.5854
Au 13.0175 21.3232 9.73271
Pd 9.58673 6.28924 19.2944
Au 15.42 19.3694 27.3468
Pd 22.0158 14.5354 17.8812
Au 15.9854 19.2964 16.5417
Pd 9.03835 12.1534 8.55212
Au 22.0894 19.4017 19.6772
Pd 10.5211 24.976 19.6998
Au 6.21294 21.9397 9.16154
Pd 20.0205 3.46587 20.1318
Au 7.10523 12.1289 23.7085
Pd 20.1627 17.8745 15.1732
Au 22.1263 12.0455 19.1643
Pd 15.5958 20.287 14.1369
Au 22.0929 22.7526 8.23164
Pd 22.7059 18.7778 15.6053
Au 21.1029 6.54263 8.63933
Pd 19.0164 7.37545 13.4299
Au 12.7373 24.4804 14.4461
Pd 12.8412 21.9237 18.3733
