665
Atoms. Timestep: 20860
Pd 12.4917 7.99464 13.0584
Pd 14.2273 12.7991 19.1859
Pd 12.9509 3.67964 12.0112
Pd 8.7508 12.3389 22.2467
Pd 22.5139 9.69611 20.0015
Au 20.1835 23.2341 19.4197
Au 16.8666 20.7455 20.9825
Pd 19.7486 16.2956 22.5323
Au 16.8976 9.57101 23.9167
Pd 10.4525 11.9408 14.0763
Au 5.20683 15.9006 14.1026
Pd 19.0105 6.63221 18.1843
Au 16.9048 26.7568 12.1424
Pd 18.2024 17.5008 10.5029
Au 4.82938 13.2351 13.2591
Pd 14.3934 26.1564 20.7979
Au 23.8241 6.5706 17.9107
Au 19.949 6.6549 5.86405
Pd 18.5806 10.7431 9.00104
Au 7.39515 10.3754 7.66319
Pd 7.07185 11.6262 17.2848
Au 19.0562 13.7943 21.6402
Pd 24.6564 20.6862 16.7283
Au 21.6206 22.633 23.1222
Pd 8.8183 13.5106 18.3212
Au 22.2318 16.8254 21.012
Pd 4.95942 12.5256 20.6302
Au 14.3289 20.3413 25.7572
Au 5.66334 16.1986 5.6927
Pd 21.1728 15.6808 6.59345
Au 8.19565 9.76698 15.7254
Pd 14.2636 15.1492 26.9764
Au 19.1764 8.41659 13.8288
Pd 11.7573 19.6317 12.5516
Au 25.4344 11.999 13.4961
Pd 12.5914 15.617 15.0349
Au 26.4862 12.1495 11.177
Pd 12.8053 8.91204 21.5801
Au 26.4697 13.6533 19.9891
Au 5.02661 21.6737 9.04205
Pd 22.873 8.13778 11.4642
Au 17.7245 20.192 23.5282
Pd 8.53571 7.31694 14.4777
Au 12.2419 9.05335 24.1904
Pd 14.1197 8.76102 6.86302
Au 12.4526 10.7425 15.4536
Pd 6.42438 19.552 9.81241
Au 20.3274 7.2098 11.8265
Pd 18.2819 7.97054 9.98364
Au 22.0794 14.2119 11.0602
Au 12.1014 24.7353 10.7725
Pd 13.4745 25.0255 13.2707
Au 15.5277 16.683 10.7021
Pd 9.21527 14.7205 23.1637
Au 19.2742 16.3078 8.31918
Pd 20.8176 24.8809 12.667
Au 22.3789 20.3058 6.5614
Pd 11.3936 13.2011 22.1885
Au 11.4334 3.8064 16.317
Pd 14.9652 23.3988 21.1572
Pd 15.257 5.47723 23.2297
Pd 19.3848 15.5225 14.4451
Pd 16.7069 7.27914 19.5177
Pd 21.5362 8.67095 24.2582
Pd 8.36909 16.3023 18.9745
Pd 10.9821 9.18524 19.7365
Pd 14.9268 16.1274 6.02211
Pd 19.6499 23.58 8.4867
Pd 15.0618 15.153 8.50624
Pd 6.14515 14.064 18.5233
Pd 9.90661 21.193 13.858
Pd 16.89 7.32451 22.1788
Au 22.3287 17.886 5.38431
Au 20.0746 4.32914 12.3691
Pd 16.1161 20.1218 4.20849
Au 21.3242 14.4692 27.3982
Pd 26.0662 11.8594 22.2004
Au 12.6204 6.45324 22.8608
Pd 11.5361 13.147 18.6208
Au 6.38704 18.2742 12.2248
Pd 10.4221 7.87602 22.1202
Au 13.7382 21.272 4.91394
Pd 12.8471 17.1998 10.4401
Au 11.5224 18.5785 8.06129
Pd 21.9476 21.4371 10.2716
Au 15.2816 19.641 18.74
Pd 10.7717 10.527 22.5272
Au 22.2702 22.7578 7.93576
Pd 12.7337 22.2282 19.7641
Au 24.1439 11.9974 20.2976
Pd 15.3354 20.2676 14.0829
Au 13.8679 17.1279 19.2313
Pd 25.9147 19.6413 19.1087
Pd 21.0188 17.3916 15.4151
Au 10.3677 22.4939 23.4295
Au 26.0582 16.9511 23.5518
Pd 11.5817 13.3316 15.9411
Au 22.599 16.3527 26.0916
Pd 15.5057 13.3079 6.67528
Au 17.1794 16.1617 15.7939
Pd 22.7548 10.4177 22.4837
Au 12.5881 10.6912 18.1429
Pd 13.5488 14.4321 10.6366
Au 13.1357 14.9766 17.6386
Pd 20.5018 20.2801 23.8699
Au 12.0488 13.4772 26.6542
Pd 20.5343 17.5614 3.37399
Au 3.12845 14.4475 15.0739
Pd 16.8189 8.7743 6.14973
Au 4.6599 21.0492 13.5642
Pd 8.68447 12.9985 15.7271
Au 13.366 11.0279 3.61104
Pd 12.1896 24.3291 21.1261
Au 18.17 13.7765 16.4249
Pd 22.714 12.2814 13.8862
Pd 4.96045 24.5525 18.2057
Au 19.2458 6.13789 20.8939
Au 11.0376 17.0609 19.6831
Pd 10.5427 22.7839 16.0289
Au 8.77531 20.6404 22.3616
Pd 6.89524 24.1111 20.165
Au 20.3388 20.9088 8.24259
Pd 8.59203 22.8708 12.1243
Au 11.8991 26.3402 17.2155
Pd 17.1994 4.11783 8.91318
Au 24.457 21.1651 11.141
Pd 27.0234 16.9078 18.6011
Au 7.66266 17.1933 10.0808
Pd 17.3335 23.2458 10.1344
Au 20.3263 15.3153 2.05868
Pd 15.5431 4.62058 13.0242
Au 7.70178 15.3513 16.5131
Pd 20.7579 14.9505 24.6674
Au 18.3473 23.6801 6.02885
Pd 8.48266 9.67208 18.5938
Au 27.1317 12.1685 15.5924
Pd 15.5189 7.38757 16.9502
Pd 14.1112 17.8421 8.07653
Au 4.72833 18.7156 5.94462
Au 20.7542 8.95837 9.70517
Pd 14.413 24.2578 9.44329
Au 14.5233 7.14372 20.9937
Pd 24.1283 14.2437 12.7102
Au 12.7573 21.3568 14.406
Pd 14.6511 8.04902 23.5852
Au 7.79597 18.4222 23.8411
Pd 11.5348 8.45869 7.63683
Au 8.7811 5.50057 12.6383
Pd 14.2594 17.7863 26.5748
Au 7.31394 25.8814 18.3239
Pd 19.1256 8.09795 23.088
Au 15.2657 21.2678 23.3132
Pd 17.2913 16.1493 12.7499
Au 20.6453 9.5466 26.5926
Pd 11.1761 12.3133 6.00975
Au 20.1954 10.2848 21.885
Pd 22.9152 18.8382 10.2312
Au 20.4618 22.245 5.92468
Pd 18.2254 24.1037 17.6569
Pd 19.4895 15.0443 11.6429
Au 9.22795 19.2189 20.1153
Au 10.7385 13.6784 8.50222
Pd 7.36417 15.8008 24.5608
Au 9.36 9.09545 9.0893
Pd 15.7497 21.5243 16.392
Au 16.3534 15.3113 3.89847
Pd 17.9169 18.9256 19.2762
Au 19.6413 7.17734 25.4919
Pd 9.99115 14.5604 20.416
Au 24.9314 8.17187 15.9243
Pd 17.9701 20.6705 10.343
Au 12.6422 4.95928 9.54278
Pd 21.8073 5.56965 10.412
Au 14.4347 23.0969 25.0758
Pd 21.8204 14.9094 13.821
Au 12.0493 21.8339 25.4534
Pd 25.3596 14.1287 15.2091
Au 8.36265 14.537 9.79487
Pd 16.0076 25.4076 14.3105
Au 12.432 19.5416 18.9447
Pd 10.0129 24.9915 22.4009
Pd 20.9909 12.3807 23.4715
Pd 20.2311 20.5535 19.2325
Pd 20.1163 22.5416 13.9234
Pd 19.7674 8.36474 16.3704
Pd 7.26094 20.5664 13.4685
Pd 14.08 14.2203 24.4898
Pd 7.75056 21.8893 9.08558
Pd 14.1512 11.7858 11.2761
Pd 19.1378 18.8348 21.6956
Pd 11.8607 6.47999 20.2398
Pd 18.9976 16.5921 17.6855
Pd 14.662 13.2617 4.12179
Au 9.02902 4.99462 15.6856
Au 12.0699 26.9901 12.3354
Pd 12.3122 10.6278 12.7339
Au 6.32465 6.71722 12.8169
Pd 16.4746 11.3513 12.6876
Au 21.949 7.9286 14.4167
Pd 22.1969 21.8616 20.6331
Au 17.4083 11.5672 26.1333
Pd 4.3964 18.5123 17.2452
Au 18.7234 11.4348 19.7921
Pd 12.0948 13.8953 12.9393
Au 25.5412 16.1645 8.62227
Pd 15.3043 14.5981 14.749
Au 18.4503 20.1862 5.88971
Pd 15.3247 21.776 8.80428
Au 10.6346 6.80079 9.60803
Pd 21.1626 16.6667 10.319
Au 13.0028 19.959 10.1058
Pd 6.21256 21.803 11.377
Au 14.6664 8.66219 4.27094
Pd 18.0763 16.4516 20.5241
Pd 13.1282 5.76329 16.7291
Au 20.7168 20.0052 4.45334
Au 9.77892 18.4107 3.87706
Pd 5.75981 15.3735 8.95315
Au 11.4153 16.8174 12.7613
Pd 14.6626 9.81186 13.9919
Au 14.3178 16.0652 22.3672
Pd 10.0384 11.6089 20.0314
Au 3.81289 9.37596 15.9927
Pd 8.63293 20.3484 11.0451
Au 19.9759 22.1371 16.5973
Pd 22.6259 10.9664 25.1293
Au 10.3336 12.2714 24.6608
Pd 9.92513 25.3361 12.1038
Au 23.0371 13.4747 16.2728
Pd 15.6276 17.6355 14.157
Au 13.1902 5.49318 14.0832
Pd 16.6763 17.1959 8.08709
Au 20.4393 6.55365 8.37563
Pd 18.6188 13.2509 24.4268
Au 11.3954 16.0692 22.2371
Pd 18.3382 21.8994 4.04852
Pd 17.4493 14.9841 9.85444
Au 18.1967 13.8427 2.42022
Au 19.7281 24.8787 15.2737
Pd 12.6722 11.3916 20.7566
Au 15.0132 3.79447 10.3539
Pd 21.2755 24.5109 17.3687
Au 7.35483 18.509 5.35441
Pd 18.0441 20.7767 15.0961
Au 20.6532 13.2404 3.68497
Pd 19.9493 17.5598 12.5999
Au 13.159 7.9775 18.4415
Pd 16.5161 11.7947 18.112
Au 14.4648 27.107 18.3078
Pd 16.1741 24.9611 19.0901
Au 19.1664 25.3014 10.5153
Pd 3.20573 12.3177 8.72134
Au 10.6899 8.56692 17.0472
Pd 8.6411 19.0532 8.34445
Au 16.8902 5.1262 17.8973
Pd 9.98221 16.9937 24.8065
Au 3.12075 11.1029 13.5695
Pd 22.4943 21.6529 15.2555
Pd 21.3822 6.14426 16.7631
Au 17.9239 13.0781 7.97417
Au 5.89388 13.7651 22.9354
Pd 7.84631 15.455 7.20784
Au 12.4631 15.686 8.25116
Pd 14.0753 12.6142 16.5399
Au 16.7742 8.53205 12.4035
Pd 7.01699 17.9868 17.1354
Au 9.44412 25.396 16.772
Pd 17.7411 6.54501 15.608
Au 18.7618 11.066 16.6323
Pd 16.3605 10.2514 10.3105
Au 14.9003 9.99688 16.7999
Pd 23.1033 20.337 23.7497
Au 14.164 3.14791 17.0913
Pd 12.7662 14.8516 20.323
Au 6.77666 24.5005 16.1885
Pd 22.0777 15.4557 4.12247
Au 3.55644 13.9916 17.9501
Pd 9.04736 11.852 9.50002
Au 13.5585 15.713 3.67871
Pd 3.67929 18.028 12.906
Pd 21.3838 12.2209 20.5347
Au 20.9946 15.1334 16.7782
Au 15.6465 24.2059 11.8617
Pd 17.989 9.03062 26.3115
Au 25.5411 18.7006 9.73993
Pd 24.6719 9.38223 18.5118
Au 16.3737 11.8032 2.62548
Pd 14.5375 5.59984 18.889
Au 4.374 8.74101 13.3557
Pd 15.8374 12.2216 24.0046
Au 8.61828 16.8503 21.6363
Pd 25.9602 14.353 23.0511
Au 21.6864 17.684 23.6665
Pd 3.23161 10.4858 10.9323
Au 24.6143 20.7029 21.5155
Pd 20.2654 13.9305 9.02981
Au 24.7199 17.2754 19.8997
Pd 11.1684 20.0056 16.0872
Au 15.3688 17.7165 3.15238
Pd 17.5503 23.3541 15.2288
Au 7.99452 22.1315 15.7234
Pd 18.8352 11.0561 14.025
Pd 18.2203 12.6612 10.9311
Pd 7.79995 7.37051 10.6615
Pd 15.3759 21.1925 11.3959
Pd 23.6814 9.81257 13.5791
Pd 17.3493 22.0445 12.818
Pd 14.3213 26.4068 10.9958
Pd 10.998 6.57422 15.0015
Pd 12.7938 17.1855 24.3131
Pd 22.5011 17.3173 12.9251
Pd 17.0365 17.726 5.26756
Pd 12.8256 24.1123 15.7424
Pd 11.5475 22.0886 6.4636
Au 19.0292 25.6103 19.9169
Au 13.4628 20.4505 7.42097
Pd 24.7787 18.8106 12.2994
Au 6.39807 23.1767 13.7624
Pd 5.59786 19.8531 19.0637
Au 13.3981 7.53519 9.33039
Pd 17.824 21.7557 7.89553
Au 17.8245 21.3894 18.1276
Pd 19.4564 8.96341 4.78979
Au 15.4931 3.12961 19.3651
Pd 23.7108 7.86662 22.9828
Au 25.2222 9.7482 11.4183
Pd 15.3427 6.57786 5.93064
Au 24.8978 10.1322 23.9455
Pd 5.463 10.9057 12.1617
Au 18.407 19.2133 3.33563
Pd 9.53399 13.3894 12.0825
Au 9.21696 18.6448 12.9797
Pd 19.4338 10.4271 24.515
Au 8.87095 24.3533 14.3623
Pd 19.2056 18.2027 24.6903
Pd 13.8107 10.2876 9.05841
Au 22.9116 7.44186 8.83001
Au 16.7463 21.6728 25.5215
Pd 15.7697 14.4324 17.4995
Au 15.1267 2.1179 12.3615
Pd 11.5924 12.2768 10.6956
Au 6.65614 13.6983 5.49758
Pd 15.5277 16.3822 24.7807
Au 23.1277 10.0241 9.37532
Pd 10.9972 15.1574 10.7208
Au 25.0825 9.53861 21.2964
Pd 25.0564 16.5269 13.573
Au 24.0115 20.7036 8.57774
Pd 17.6433 23.1828 20.3598
Au 3.10398 16.6843 18.6639
Pd 19.2387 24.2161 22.2786
Au 22.4576 5.72161 12.9315
Pd 5.18799 10.6879 9.22053
Au 23.4395 10.9949 6.85566
Pd 21.6772 14.4388 21.979
Au 26.7044 10.0177 16.9651
Pd 12.1727 17.5498 17.1072
Pd 18.2086 15.803 24.8235
Au 20.1204 5.82195 14.5017
Au 12.4982 18.1445 3.41232
Pd 12.5491 19.9291 23.6577
Au 26.5389 18.6446 21.4619
Pd 15.5138 4.88423 15.6455
Au 16.4227 6.15711 10.5958
Pd 13.3286 22.5984 11.8885
Au 19.264 4.30506 16.752
Pd 11.3703 5.81649 11.9439
Au 13.6063 24.5916 18.6489
Pd 10.3531 14.9648 6.19271
Au 10.5805 5.98602 17.8021
Pd 7.15006 21.5137 20.4427
Au 12.9633 22.4422 22.7591
Pd 14.6073 27.4939 13.345
Au 17.0346 2.68244 17.0901
Pd 15.8107 12.7966 9.55086
Au 19.9312 16.6964 26.7439
Pd 16.6742 14.5866 22.8293
Au 4.23896 22.3467 19.7
Pd 26.3009 9.63265 14.1829
Pd 9.76399 22.8108 20.641
Au 18.7532 14.2314 27.0281
Au 23.4144 18.8989 14.8973
Pd 19.3785 20.2694 12.6452
Au 16.6948 18.7677 25.6478
Pd 17.8468 13.5657 13.6275
Au 14.474 12.3685 26.4876
Pd 6.0863 7.96894 15.2131
Au 20.837 4.67208 19.0124
Pd 17.9135 6.11757 12.8175
Au 4.378 14.1004 7.07295
Pd 7.38044 10.0733 10.4909
Au 26.8025 16.0246 21.1339
Pd 15.0542 5.58193 8.34063
Au 16.3243 12.4036 20.7862
Pd 17.4868 3.61033 11.623
Au 24.8772 13.7037 7.41627
Pd 16.4366 16.8952 18.4276
Au 22.5788 13.3782 5.96384
Pd 14.1653 20.4735 21.0678
Au 13.9181 23.2662 6.90629
Pd 15.8555 10.9806 5.04054
Pd 4.58537 17.3415 10.3117
Au 10.7939 4.01769 13.7945
Au 15.7695 18.087 20.9407
Pd 5.99708 9.78045 20.1057
Au 14.0034 26.542 15.6907
Pd 19.9313 13.3367 6.28136
Au 28.7269 16.7149 16.4077
Pd 3.56282 21.1169 17.4323
Au 17.0176 19.0438 12.3159
Pd 20.4449 12.2647 26.1789
Au 24.3552 10.8865 15.8702
Pd 9.65493 17.5918 6.29842
Au 22.8829 15.4909 8.57596
Pd 22.7441 11.3982 17.9506
Au 3.0648 19.7614 15.1502
Pd 13.5737 11.3317 6.33922
Au 5.32917 22.9507 21.9884
Pd 7.33772 9.12793 12.9808
Au 2.94662 17.0739 15.4274
Pd 18.2177 24.54 12.8788
Au 15.8918 2.33757 14.794
Pd 16.8497 23.3037 23.1432
Pd 8.56956 23.2673 18.2048
Pd 4.45597 15.0783 20.4671
Pd 9.18175 7.32722 19.7085
Pd 18.8352 10.0822 11.5656
Pd 6.16215 15.4029 11.6027
Pd 20.8555 11.1927 7.74513
Pd 5.85469 17.0053 19.3474
Pd 13.3618 2.93164 14.5284
Pd 18.0448 16.7479 2.56539
Pd 4.22869 19.9642 11.1456
Pd 20.6595 19.9022 14.8544
Pd 17.6543 6.88483 4.6543
Au 22.5869 22.7862 12.5723
Au 10.3646 18.3368 10.5374
Pd 12.9654 11.7844 23.8896
Au 17.0784 27.324 19.3248
Pd 5.68906 10.8017 14.9418
Au 9.70152 10.036 6.34048
Pd 19.3299 19.1988 17.0316
Au 19.4999 21.5907 21.6766
Pd 8.2096 7.3463 17.1245
Au 11.8391 16.2421 26.6555
Pd 7.82592 11.6253 13.627
Au 27.6998 16.9571 13.735
Pd 19.0206 5.38971 10.2346
Au 6.02442 9.1298 17.5374
Pd 10.4447 9.27534 14.3791
Au 10.4389 18.5119 22.6853
Pd 18.0054 11.5586 22.5722
Au 20.4242 12.9711 15.2532
Pd 20.4658 17.9869 19.4349
Au 12.8627 6.27826 7.02322
Pd 22.5064 16.7766 18.2433
Pd 21.4244 7.93716 21.6737
Au 9.41732 25.4182 19.8445
Au 10.3912 15.4675 17.2371
Pd 24.9192 14.0328 10.1564
Au 6.5559 12.8935 8.45987
Pd 14.781 10.4924 22.3108
Au 20.0581 3.87905 21.7009
Pd 14.2876 18.7426 12.0972
Au 5.50986 18.4563 14.7557
Pd 16.9679 9.67073 20.9957
Au 15.6151 15.048 20.2512
Pd 23.4355 16.1667 15.6797
Au 6.4813 20.4349 7.14859
Pd 7.38913 14.276 13.7337
Au 21.5997 24.5998 21.2699
Pd 14.0623 12.4478 13.8552
Au 3.78686 16.7546 7.62845
Pd 24.613 18.1173 17.2853
Au 16.9179 16.4585 27.0801
Pd 21.5931 18.8792 25.9273
Au 3.43317 15.3996 12.11
Pd 7.74688 11.291 5.0524
Pd 12.9554 18.2713 14.4556
Au 15.7777 13.9756 12.0228
Au 20.3634 12.8182 18.0567
Pd 24.662 7.42086 13.3196
Au 17.9658 14.1002 19.1079
Pd 7.72501 16.9787 14.4619
Au 26.6146 10.9933 19.5666
Pd 21.2457 18.223 8.00207
Au 13.0274 21.9425 17.1857
Pd 21.1501 11.0491 5.16301
Au 28.0839 14.6133 14.899
Pd 26.7227 14.4287 12.6593
Au 9.68154 18.3271 17.6616
Pd 14.0052 15.9941 12.7958
Au 10.4143 11.0672 3.86623
Pd 15.9676 8.15381 8.68013
Au 18.4427 3.62771 19.4553
Pd 12.3501 4.14932 18.8565
Au 9.47713 14.5903 25.9846
Pd 25.0835 15.2694 25.4814
Au 23.1563 24.1712 19.2288
Pd 13.3276 12.91 8.46928
Pd 17.2297 17.4 22.9814
Au 8.48833 9.61778 21.2952
Au 23.5924 5.95392 15.3165
Pd 11.1309 23.9692 18.4022
Au 23.9767 23.3185 21.7334
Pd 27.3275 14.3934 17.4288
Au 4.48456 20.4276 21.5483
Pd 25.1911 11.5415 9.00374
Au 5.68807 13.4631 15.8608
Pd 5.87426 20.5583 16.1022
Au 16.6166 4.9026 20.9826
Pd 24.2767 14.8118 20.9666
Au 6.01052 16.3938 22.3257
Pd 21.4418 7.36386 19.1032
Au 3.08334 14.9331 9.4835
Pd 8.74716 12.777 6.95929
Au 26.226 16.5144 15.9708
Pd 6.35849 17.7287 7.79963
Au 22.2995 21.8281 17.9508
Pd 4.80914 13.2052 10.5169
Au 11.6065 24.4192 7.96691
Pd 15.8074 19.1785 9.72206
Pd 22.7638 12.8006 8.77097
Au 21.2612 10.0863 12.6054
Au 21.6643 8.77805 6.80728
Pd 14.4674 24.9503 23.1695
Au 12.1866 10.8637 26.1832
Pd 7.16732 12.7075 11.3071
Au 6.43174 11.1731 22.4321
Pd 12.8808 18.2265 21.508
Au 7.88564 23.2645 22.5684
Pd 21.7026 24.1135 10.2327
Au 26.098 18.983 14.6449
Pd 10.9032 21.7704 11.2663
Au 4.64618 11.3976 18.2526
Pd 9.639 10.6179 11.8439
Au 3.35741 11.9989 16.0397
Pd 8.50514 19.4652 15.5035
Au 12.043 24.4666 24.2192
Pd 14.3234 8.98773 11.4227
Au 20.422 15.229 19.6529
Pd 21.9913 19.2728 17.1649
Au 7.72167 13.0166 24.639
Pd 13.1518 8.17802 15.6416
Pd 26.5156 16.6795 11.2498
Pd 11.6093 19.5589 5.50804
Pd 14.8103 9.86165 19.5574
Pd 14.9264 18.674 23.5219
Pd 10.3441 17.4707 15.1658
Pd 10.1241 11.2425 17.1153
Pd 18.481 10.9898 6.206
Pd 9.91564 20.0932 24.7573
Pd 19.1778 8.60787 20.1105
Pd 22.7202 14.0253 18.9576
Pd 19.6021 17.7876 5.89686
Pd 4.13513 19.2831 8.46178
Au 12.3131 26.4974 22.5168
Au 14.9567 22.9063 14.1719
Pd 16.4368 24.1079 7.71896
Au 16.0844 10.8321 7.69889
Pd 16.0667 19.6988 7.05649
Au 17.1299 9.25002 3.44401
Pd 11.5934 14.6958 24.4211
Au 19.2017 26.5394 17.3916
Pd 11.3307 10.9923 8.31336
Au 9.20959 13.475 4.26312
Pd 13.9226 19.5634 16.4539
Au 16.6615 25.8253 9.72436
Pd 19.0839 22.4391 24.2842
Au 10.37 21.0126 8.71968
Pd 24.1161 18.1121 24.9652
Au 22.2902 24.2544 14.854
Pd 8.00643 20.4493 17.9934
Au 7.31556 14.4845 20.8698
Pd 11.1895 25.8964 14.5977
Au 16.3827 11.9319 15.3213
Pd 11.305 20.6572 21.2965
Pd 22.1573 5.48109 21.12
Au 9.85195 7.9866 12.1001
Au 17.6839 6.35071 7.48948
Pd 17.9264 3.99224 14.4225
Au 9.9585 14.9342 14.3857
Pd 23.2344 19.5204 19.4364
Au 20.3001 19.243 10.4179
Pd 6.74941 18.8649 21.2809
Au 24.0149 23.3958 16.7431
Pd 23.8519 18.0613 7.72563
Au 14.6237 16.861 16.4319
Pd 24.8587 15.2606 18.0099
Au 5.30554 8.46599 10.9219
Pd 14.013 6.26713 11.5871
Au 16.9479 7.02929 24.8798
Pd 18.5162 18.9935 8.26767
Au 13.7413 4.52563 21.197
Pd 11.8978 26.5513 19.8182
Au 22.9226 13.6018 25.4272
Pd 23.6458 12.8619 22.8865
Au 17.4681 9.20498 17.9848
Pd 20.3537 12.7696 12.6304
Pd 10.8337 15.93 3.77336
Au 24.6452 21.1741 13.836
Au 11.9195 13.4055 3.67072
Pd 12.5883 22.3971 9.21141
Au 12.0707 9.35706 5.16555
Pd 21.685 19.4891 21.5876
Au 4.62439 22.9232 15.7798
Pd 23.5509 11.8356 11.3546
Au 27.2684 18.9445 16.9372
Pd 15.3531 22.3273 18.8569
Au 16.649 18.8997 16.5237
Pd 6.16531 22.3503 17.9648
Au 23.9518 16.4445 10.8906
Pd 19.0853 8.68923 7.46377
Au 19.7322 22.6534 11.2333
Pd 13.0136 14.2276 6.04294
Au 9.76925 23.6899 9.80123
Pd 15.3644 24.1561 16.6578
Au 18.4231 18.1871 14.5758
Pd 20.9082 11.6187 10.3708
Au 22.2109 20.0784 12.6468
Pd 8.8287 16.0633 12.1466
Pd 21.341 10.4772 15.4358
Au 17.556 13.121 4.89164
Au 7.3987 11.9144 19.9361
Pd 17.5017 15.2841 6.5365
Au 23.8968 7.36065 20.3823
Pd 11.6838 9.29135 10.4977
Au 8.22103 16.0194 4.55941
Pd 22.539 8.72685 16.9977
Au 2.94671 19.5174 19.4644
Pd 15.3102 7.15954 14.1222
Au 1.79729 18.7025 17.2522
Pd 19.253 15.4304 4.55985
Au 4.00625 17.7544 21.0999
Pd 18.8754 11.27 3.50946
Au 20.8955 5.9776 23.4167
Pd 18.1989 26.8097 14.5704
Au 23.9453 15.8369 6.11977
Pd 12.259 16.9123 5.85924
Au 9.26828 23.0464 7.26245
Pd 10.4709 21.2616 18.4423
Au 2.48845 12.9327 11.589
Pd 9.89632 16.4455 8.64967
Pd 24.0552 18.2329 22.3155
Au 11.876 18.9549 26.0995
Au 16.6515 26.5156 16.7575
Pd 5.05134 15.9646 16.8356
Au 18.2819 5.29474 23.3342
Pd 16.4215 14.0708 25.853
Au 25.2923 12.5374 24.9073
Pd 14.2402 18.6427 5.41407
Au 23.5251 15.6933 23.4704
Pd 16.8662 25.5206 21.6122
Au 5.10972 18.6034 23.4701
Pd 14.1702 13.2954 22.004
Au 25.324 12.5358 17.7525
Pd 11.2625 23.4663 13.3875
Au 6.40985 20.9392 23.383
Pd 16.1352 22.1482 5.86689
Au 5.25535 11.6031 6.58153
Pd 17.0267 9.20239 15.2326
Au 9.15796 20.5008 6.16091
Pd 20.5059 9.99727 18.3274
Au 24.7169 22.0392 19.1913
Pd 14.6616 10.0674 25.2752
