665
Atoms. Timestep: 20743
Pd 26.6907 17.8736 12.2472
Pd 13.8085 19.0058 20.643
Pd 6.55477 8.62636 20.6283
Pd 6.24794 8.75967 12.5535
Pd 13.6889 19.6983 15.191
Au 7.44062 17.0816 4.39847
Au 21.7119 21.4559 14.9488
Pd 22.9698 17.7862 22.0966
Au 10.2128 10.245 15.9834
Pd 10.6965 8.047 9.26129
Au 27.4326 17.19 14.8263
Pd 20.1026 10.9857 23.1899
Au 16.1976 20.2324 19.478
Pd 19.4275 20.1874 22.8333
Au 14.3192 27.3965 20.1684
Pd 19.3064 17.4322 5.06821
Au 11.6745 4.56179 18.9977
Au 20.4624 10.2839 25.742
Pd 10.7093 11.621 5.59089
Au 21.0072 7.95328 14.9038
Pd 12.7819 6.7929 14.1156
Au 23.959 17.7245 11.5712
Pd 25.0595 19.9817 12.3879
Au 25.3094 9.01378 19.323
Pd 9.30126 16.0213 24.6187
Au 26.4002 18.8325 21.6359
Pd 20.3998 18.0933 18.4415
Au 9.16436 17.3384 9.37642
Au 16.8243 20.6981 24.3955
Pd 22.3464 12.9903 10.2128
Au 7.40453 7.92632 14.8334
Pd 14.3285 6.59565 16.1834
Au 18.436 8.68986 4.61535
Pd 6.8568 15.8035 17.1801
Au 22.0343 20.3322 22.3841
Pd 16.3684 16.2384 8.28637
Au 24.0558 8.26968 10.9973
Pd 11.9283 26.6194 14.8342
Au 20.5921 15.6802 3.48856
Au 16.047 23.3864 6.90178
Pd 20.4909 8.8688 18.776
Au 21.1524 23.9408 8.35067
Pd 14.1323 11.4594 18.3493
Au 8.63694 12.5447 7.00149
Pd 23.916 17.7581 6.0935
Au 23.2453 18.0136 8.90728
Pd 2.92189 10.6368 16.0476
Au 6.20927 18.6158 23.7737
Pd 23.2146 15.3866 23.2973
Au 7.25703 8.19178 6.34984
Au 15.6562 23.5144 9.51947
Pd 16.3784 19.2839 7.0415
Au 24.9384 13.2276 14.3499
Pd 12.0077 9.32274 13.6115
Au 9.81258 5.1718 12.4725
Pd 6.43087 17.5028 14.657
Au 12.0184 6.36686 21.185
Pd 13.7159 8.45856 20.4936
Au 11.7437 4.57096 10.6104
Pd 9.78907 9.21663 6.82103
Pd 13.6535 13.5978 16.8009
Pd 20.932 14.9305 14.0559
Pd 6.35655 13.932 10.9143
Pd 13.1992 17.6514 27.523
Pd 15.1299 13.7228 8.51053
Pd 6.93401 11.0444 19.3592
Pd 6.41049 22.7086 12.9947
Pd 8.07228 8.12378 8.84089
Pd 7.12839 10.4507 7.83123
Pd 11.362 5.9194 16.4861
Pd 7.54401 15.317 22.802
Pd 4.95704 16.0356 23.2929
Au 16.3211 13.8882 3.86232
Au 15.1519 11.5752 4.23106
Pd 16.9612 16.938 14.5364
Au 20.745 15.8335 22.3791
Pd 5.67012 18.9719 8.98101
Au 8.58648 17.8945 22.7232
Pd 10.1487 7.3937 14.2289
Au 12.9954 11.2893 11.8362
Pd 11.0378 9.03797 21.0177
Au 10.5247 20.0471 4.74718
Pd 17.5934 7.90376 8.56707
Au 7.81788 23.01 8.31752
Pd 20.5693 14.9066 8.82741
Au 15.9748 17.366 11.5592
Pd 9.57233 13.4846 23.4786
Au 20.0685 17.848 26.2799
Pd 17.0373 27.4969 20.2064
Au 19.9465 26.3915 15.583
Pd 9.03991 21.6327 6.51368
Au 25.216 10.8627 21.232
Pd 19.9948 23.5759 25.764
Pd 17.6144 16.8972 26.7595
Au 7.6002 13.8763 25.1866
Au 17.5882 22.3202 18.3205
Pd 5.38758 18.1813 12.3476
Au 15.6134 2.07047 13.9204
Pd 16.9355 21.2611 8.70484
Au 21.3948 13.3661 23.5308
Pd 25.7249 18.6591 9.81402
Au 11.5009 9.7906 25.2468
Pd 22.9121 6.94724 13.116
Au 4.43672 9.96699 19.5541
Pd 23.9814 20.1733 18.3402
Au 13.4815 26.6141 22.741
Pd 14.4174 21.0559 7.40929
Au 3.39432 14.0869 21.8632
Pd 19.3781 14.8331 26.8854
Au 10.4106 26.7043 16.9051
Pd 15.4968 23.5642 25.805
Au 25.3085 16.9869 23.1505
Pd 10.4777 20.7762 24.5448
Au 15.6663 9.69199 23.2287
Pd 17.2694 23.6452 14.8572
Pd 15.2281 17.7761 18.875
Au 11.5393 7.22057 11.7075
Au 24.395 6.51776 19.7603
Pd 8.80266 12.057 17.7733
Au 12.086 12.0242 26.926
Pd 13.519 16.8617 25.0181
Au 5.64244 15.5969 5.67258
Pd 24.5795 13.8993 8.75444
Au 16.1605 21.3518 15.8527
Pd 16.6508 12.8679 13.4001
Au 8.10574 19.278 5.62301
Pd 13.1015 21.0104 4.62255
Au 12.494 21.9987 26.1913
Pd 14.4893 21.5924 13.3292
Au 22.8658 14.2197 15.688
Pd 15.5068 16.7644 21.3498
Au 17.7814 19.5919 26.973
Pd 23.4987 8.53532 21.3457
Au 11.4148 20.2328 19.4479
Pd 12.7406 13.4532 19.5111
Au 14.9475 8.10438 7.97514
Pd 20.8778 6.68865 17.2751
Pd 16.7273 5.40687 15.654
Au 12.151 20.9868 11.4031
Au 9.55074 19.944 15.2571
Pd 4.18031 14.714 9.80329
Au 13.2108 2.94557 12.5007
Pd 26.8391 16.1491 21.1582
Au 2.57928 18.7046 16.2961
Pd 15.3225 10.5881 12.8615
Au 13.178 2.2803 15.1664
Pd 5.64551 9.22833 9.73501
Au 24.7204 13.6713 11.5157
Pd 8.42383 19.3516 20.495
Au 10.0014 14.1985 19.5679
Pd 13.2408 6.72298 18.5284
Au 19.9586 4.40058 11.1252
Pd 18.3575 7.55798 14.3656
Au 21.9447 8.94995 23.7602
Pd 22.7358 11.3206 24.6654
Au 8.97415 7.54095 21.6884
Pd 19.304 12.5127 6.641
Au 20.0581 24.7323 10.6104
Pd 15.6618 26.9422 17.8557
Pd 19.7302 17.1702 14.2678
Au 20.1838 24.7863 23.2065
Au 2.75491 14.6541 19.2822
Pd 14.6096 5.7814 20.6182
Au 5.74528 21.9465 15.5664
Pd 19.0703 19.3677 7.33775
Au 15.7928 8.99377 4.0014
Pd 16.1652 16.3321 24.1848
Au 12.9054 24.7736 16.5269
Pd 14.5555 26.6387 15.3742
Au 4.67268 15.5954 12.3819
Pd 16.8344 10.4301 17.7396
Au 19.6136 7.87249 24.6723
Pd 18.0945 2.70838 12.3043
Au 9.68116 20.3452 12.5967
Pd 17.9126 12.2799 15.8908
Au 18.6536 22.5555 23.7566
Pd 20.2218 3.63218 13.7489
Au 17.7633 22.3176 26.4031
Pd 21.0266 23.1667 17.3858
Au 21.8605 18.003 4.21559
Pd 22.2153 19.2549 19.9701
Pd 19.5566 15.7682 19.6991
Pd 13.8517 7.34738 5.02487
Pd 23.209 17.5189 24.8746
Pd 7.08113 18.018 18.5818
Pd 18.5251 14.8769 15.3228
Pd 14.4833 9.00972 14.7843
Pd 4.28275 14.0241 7.27475
Pd 12.8697 22.6952 9.03913
Pd 10.6902 23.5099 25.08
Pd 9.21361 19.663 17.9342
Pd 20.4389 22.4837 21.6999
Pd 19.9542 12.2494 9.2863
Au 21.5649 6.84214 10.7338
Au 24.6796 21.7197 14.4289
Pd 19.9656 8.75878 12.3838
Au 17.9871 10.8345 12.1073
Pd 10.5237 12.5594 10.7636
Au 14.0079 19.1599 12.1016
Pd 11.7947 15.1707 24.0277
Au 8.83456 14.7638 10.2282
Pd 9.57081 22.2323 18.8228
Au 16.3534 7.54217 21.6046
Pd 22.4362 9.59359 13.1027
Au 27.9183 16.2404 17.1763
Pd 9.28537 15.3113 3.47417
Au 25.5659 11.6704 7.32085
Pd 17.6059 18.4136 9.40709
Au 10.6556 7.18867 18.9782
Pd 23.9517 20.7169 10.0023
Au 12.7818 11.0327 15.6696
Pd 6.47994 10.9691 14.1673
Au 7.33707 5.98431 13.121
Pd 19.2935 5.4609 8.66302
Pd 22.2 22.0533 19.6528
Au 15.9321 9.47141 10.1701
Au 7.14844 20.2253 13.6817
Pd 19.9517 4.94881 19.226
Au 21.9751 13.0258 7.42729
Pd 14.1326 16.6399 16.7211
Au 17.9081 3.08492 14.929
Pd 9.19162 14.223 12.8441
Au 23.0605 8.10212 18.0222
Pd 12.0407 10.521 7.59425
Au 14.8078 18.8625 4.769
Pd 18.2447 9.65954 19.8972
Au 6.80609 16.4862 25.1725
Pd 12.0923 8.36425 16.2257
Au 16.0335 18.6642 16.4673
Pd 15.7472 25.6256 21.5169
Au 22.0301 5.30172 15.0818
Pd 9.77225 15.2976 7.78408
Au 3.97863 10.3734 13.3641
Pd 8.71741 24.6265 17.3349
Au 11.9513 23.9713 13.9792
Pd 4.77038 12.6203 19.9821
Pd 8.02575 10.4779 5.27678
Au 12.4215 18.3974 3.60938
Au 15.5311 25.8431 24.1801
Pd 9.64979 25.1518 14.8259
Au 13.3738 12.5492 6.31046
Pd 12.0205 22.4391 23.1267
Au 6.24137 12.7314 6.07774
Pd 11.7004 17.1752 8.05182
Au 14.7911 10.9666 8.19096
Pd 18.6211 24.4903 17.028
Au 3.86116 13.0121 12.1828
Pd 11.5888 15.0433 10.0111
Au 16.103 26.0391 12.9976
Pd 13.9949 20.0369 17.8678
Au 18.4161 27.0413 17.9007
Pd 7.54727 17.1496 7.30203
Au 21.2609 8.4766 6.01339
Pd 8.14902 14.8896 5.79352
Au 20.502 7.83216 8.53736
Pd 24.4254 19.537 23.494
Au 9.62451 11.5802 25.5037
Pd 11.6551 18.5522 13.3548
Pd 10.1377 15.7177 21.9545
Au 23.129 22.1521 7.87736
Au 25.4125 7.87947 13.3436
Pd 4.47619 20.3472 17.2857
Au 10.2224 16.6238 11.8039
Pd 20.786 18.071 23.7936
Au 10.5444 23.091 11.7608
Pd 7.9454 9.8859 10.7421
Au 9.29157 5.81266 9.82752
Pd 14.2613 21.6679 24.2853
Au 11.3606 6.36113 5.41919
Pd 9.05463 5.18847 15.1838
Au 8.26951 24.5852 12.5088
Pd 20.0166 18.176 21.1536
Au 26.3983 11.415 18.7577
Pd 10.6255 11.0419 22.8654
Au 22.58 24.0777 11.2982
Pd 18.6265 16.084 10.3075
Au 5.07088 9.08254 15.5069
Pd 16.1148 19.4658 13.7188
Au 11.2099 13.4806 15.3509
Pd 20.9687 12.8867 26.0881
Pd 15.941 6.60361 10.5686
Au 14.9195 18.8118 9.39802
Au 24.4226 13.08 22.6764
Pd 16.1506 7.75185 19.0181
Au 13.9865 5.69015 7.10886
Pd 20.5277 12.9644 15.9569
Au 21.1706 25.5507 13.102
Pd 9.02929 22.4862 14.0436
Au 8.88417 17.4301 16.3164
Pd 15.7037 24.5026 16.8238
Au 8.06681 20.5791 23.2824
Pd 18.0824 24.1992 21.6689
Au 17.8407 14.7813 5.91853
Pd 15.7866 23.1181 20.4986
Au 18.0833 16.4013 22.0419
Pd 25.094 13.2374 17.1475
Au 17.993 21.6111 13.3488
Pd 2.91694 15.8824 16.6139
Au 6.16348 8.53357 17.961
Pd 11.7329 21.2786 14.0977
Au 14.0208 10.7587 25.3636
Pd 22.4748 16.8874 15.1316
Pd 18.6604 17.2529 16.7244
Pd 12.355 7.93354 7.24591
Pd 9.9527 17.1106 18.7469
Pd 19.1712 13.7463 21.5771
Pd 24.5302 6.09472 15.1861
Pd 21.3158 17.7711 6.8121
Pd 20.5277 17.7116 9.45406
Pd 8.82895 17.975 13.6023
Pd 11.6296 13.368 21.8519
Pd 23.1776 22.7838 21.9523
Pd 12.3459 22.5733 18.3125
Pd 9.92559 10.5042 3.39331
Au 25.5989 18.1472 17.1542
Au 5.59057 18.4301 6.15629
Pd 11.9619 25.0525 10.1112
Au 24.6504 19.8533 7.60362
Pd 17.9407 14.0331 8.48721
Au 7.19546 24.1243 15.1788
Pd 12.8174 14.8236 7.63058
Au 5.31539 12.2046 8.88892
Pd 14.472 4.48905 14.438
Au 17.8253 11.2738 4.52478
Pd 5.72418 13.3489 23.1981
Au 5.70717 14.8179 20.98
Pd 7.92927 15.2859 14.8388
Au 26.3323 8.88711 15.6736
Pd 8.24197 11.9503 12.2225
Au 17.4665 4.33722 10.1755
Pd 10.848 11.6726 13.4116
Au 2.68433 14.668 14.0832
Pd 14.0937 8.35198 12.0073
Au 11.7578 14.0866 12.6631
Pd 9.6279 5.26397 20.5364
Pd 12.5153 19.0265 6.24956
Au 10.937 13.1446 3.07541
Au 13.3789 21.7127 20.5786
Pd 16.5922 14.1053 22.7139
Au 18.8501 16.6736 7.59397
Pd 21.4017 20.5699 17.6147
Au 14.8074 16.3201 3.71195
Pd 17.8545 21.6254 21.197
Au 22.2191 19.9286 25.066
Pd 13.1098 15.2634 14.7702
Au 15.3652 15.1921 13.0758
Pd 8.1703 21.942 16.5877
Au 26.291 15.3307 13.138
Pd 18.585 24.8925 12.977
Au 17.3247 5.21426 20.177
Pd 15.5426 18.6722 28.3298
Au 19.086 7.17435 20.4028
Pd 19.3299 5.41444 15.5019
Au 27.9378 19.1588 16.9528
Pd 14.5194 15.2335 19.0633
Au 20.5205 10.8026 4.97091
Pd 7.67766 11.5548 23.7192
Pd 22.7833 10.3453 19.4379
Au 25.1404 15.7212 15.9496
Au 4.61136 19.6922 14.6226
Pd 16.0331 23.3654 23.213
Au 23.9694 11.0504 11.4808
Pd 11.6144 8.99159 4.84413
Au 13.4382 13.9257 4.00136
Pd 13.9517 14.6807 21.8984
Au 17.3117 10.0316 14.607
Pd 7.9169 12.3543 9.56105
Au 14.6607 24.1761 14.299
Pd 18.4533 18.1503 12.1769
Au 5.52198 20.6418 11.5537
Pd 12.9524 12.3741 9.41677
Au 14.9848 18.6526 23.2894
Pd 10.2363 20.9047 21.7271
Au 8.77018 12.3832 14.9189
Pd 20.3466 6.17538 13.0284
Au 18.3323 19.7726 17.7296
Pd 7.35624 16.1502 12.3446
Au 6.34931 20.9228 6.80852
Pd 17.8544 12.3014 19.6542
Pd 13.041 9.50889 9.81712
Au 27.5891 13.6826 18.0356
Au 20.4248 22.7578 12.5246
Pd 4.75581 16.6026 7.91616
Au 15.6028 18.4495 25.8277
Pd 11.7812 15.3799 17.4614
Au 11.2086 25.0938 22.9413
Pd 16.3974 7.1633 5.89534
Au 12.6003 11.1936 3.74377
Pd 22.8171 11.4803 15.017
Au 12.4792 17.9371 18.4757
Pd 13.27 6.82189 9.62326
Au 16.2565 25.7858 8.23596
Pd 7.93423 6.88778 19.2012
Au 18.8018 13.133 24.2639
Pd 21.5994 24.6952 20.806
Au 10.5471 16.01 14.5041
Pd 9.32175 23.1507 22.8234
Au 24.5345 10.4165 17.0584
Pd 18.5777 14.1426 17.7884
Au 26.4529 13.5208 20.5504
Pd 20.8145 15.6993 16.947
Pd 13.1401 19.4965 25.3872
Au 11.6663 4.36202 14.2178
Au 17.4853 11.5186 22.2046
Pd 10.6487 9.85554 11.3399
Au 22.9192 23.7231 14.0061
Pd 18.7595 6.8658 10.8234
Au 20.3918 11.5581 20.4165
Pd 12.1583 12.566 24.4364
Au 22.0988 13.8324 21.0366
Pd 11.0462 24.0597 7.69048
Au 15.6837 21.4175 5.09744
Pd 10.9396 14.3227 5.49522
Au 3.92519 17.3408 10.3494
Pd 21.9112 19.4111 10.9757
Au 9.80552 17.9238 3.2808
Pd 23.2373 14.9348 18.2472
Au 17.8338 24.8063 24.8567
Pd 4.56916 13.8834 17.5303
Au 1.98422 12.0753 13.9749
Pd 12.6741 16.3848 5.43203
Au 21.1607 17.021 12.0664
Pd 15.1468 15.9271 26.9873
Pd 5.1237 15.2422 15.1876
Pd 13.298 24.3154 24.5347
Pd 16.0983 13.1946 17.8756
Pd 10.2174 22.0009 9.13153
Pd 13.9079 13.9391 11.2306
Pd 20.9149 9.12041 21.3061
Pd 8.08679 21.7639 10.9605
Pd 7.05663 13.7593 18.8704
Pd 9.78128 10.6502 8.94851
Pd 18.3161 22.655 10.7378
Pd 23.5569 11.2132 8.828
Pd 14.5122 4.4585 9.58852
Au 21.8272 13.1194 4.70631
Au 10.6875 25.7871 12.3583
Pd 12.9049 11.0966 20.7416
Au 18.3626 19.373 14.9829
Pd 11.7099 17.8615 15.9543
Au 8.55571 12.7954 4.19497
Pd 18.0757 18.3432 24.3993
Au 9.09384 9.19916 24.0033
Pd 18.1559 15.3317 12.7462
Au 23.4246 13.764 25.3183
Pd 6.93665 19.5345 16.3117
Au 24.2154 13.5722 6.06115
Pd 16.5287 8.06199 16.2888
Au 2.12013 13.3202 16.3956
Pd 11.0386 18.0772 24.0995
Au 6.16407 17.5436 21.2933
Pd 17.0953 8.3924 12.246
Au 18.0754 3.89462 17.5674
Pd 19.8213 20.5752 19.8352
Au 19.0079 6.89174 6.45453
Pd 21.5957 9.92006 16.6709
Pd 15.3658 11.5264 15.7497
Au 22.9207 15.6114 4.78597
Au 22.8872 15.6204 7.49531
Pd 17.032 14.9093 20.0169
Au 5.72005 11.2782 11.4358
Pd 26.4627 19.6957 14.7299
Au 27.496 17.7891 19.2641
Pd 19.1925 13.5028 4.03973
Au 13.7485 5.58877 11.9889
Pd 23.5168 22.4494 16.7785
Au 13.2072 20.1884 28.0408
Pd 20.2028 23.8424 14.9086
Au 13.4902 23.2502 6.14027
Pd 13.3808 26.0419 12.7411
Au 12.5585 19.9038 22.7774
Pd 5.21702 11.2061 17.2921
Au 5.79346 10.9956 21.8334
Pd 6.73773 20.6922 18.7771
Au 12.1452 15.9398 20.1882
Pd 19.7006 20.5933 25.4386
Au 7.82264 22.091 20.8868
Pd 9.243 7.71516 16.7698
Pd 20.8561 13.6547 18.7807
Au 4.64224 18.9238 19.5036
Au 27.3417 14.2127 15.3857
Pd 26.7333 11.6022 15.8442
Au 17.2627 18.9727 21.7604
Pd 16.6436 17.0824 5.62272
Au 14.3594 9.04822 17.5492
Pd 13.0432 16.3614 12.2484
Au 18.427 12.1339 26.6514
Pd 5.77777 21.6909 9.25768
Au 13.4893 23.5405 11.6547
Pd 10.287 14.0326 26.1013
Au 8.82932 24.4964 20.1611
Pd 15.7263 12.113 10.6984
Au 23.1622 8.59375 8.13287
Pd 15.6623 2.9999 16.42
Au 9.20386 4.95091 17.8677
Pd 4.96705 16.1938 18.9198
Au 26.3402 9.77236 11.6368
Pd 22.5845 12.2284 17.5701
Au 26.7475 12.2644 12.6974
Pd 26.0776 11.9722 9.97817
Pd 17.8351 15.9652 3.45621
Au 8.98338 9.39949 18.8949
Au 22.9356 17.6552 17.6372
Pd 14.7257 12.938 26.8036
Au 12.0091 26.1165 20.5656
Pd 9.27255 14.6196 17.0093
Au 2.80155 11.8792 18.4549
Pd 21.2284 10.4764 7.84363
Au 6.89189 23.2753 18.5726
Pd 15.6171 6.788 13.6522
Au 14.4192 14.2816 24.5616
Pd 18.8991 15.8148 24.4832
Au 14.0361 7.23326 22.9548
Pd 21.4667 22.0039 10.1527
Au 3.54692 17.2683 14.273
Pd 15.3865 20.9382 22.0308
Au 14.3174 12.117 22.8152
Pd 17.437 11.3671 8.70589
Au 17.0839 25.0301 19.1783
Pd 14.0538 16.1962 9.65496
Au 12.4713 19.9579 8.80635
Pd 7.64785 18.8923 11.151
Pd 25.7958 15.6081 18.6569
Au 14.7137 25.8106 10.5015
Au 16.84 7.55752 24.3246
Pd 16.2036 23.3922 12.1958
Au 17.948 10.0655 24.9213
Pd 14.6197 21.288 10.4204
Au 17.7963 5.26069 12.9532
Pd 13.6225 24.1084 21.8428
Au 8.03513 15.9856 20.1245
Pd 15.0239 14.938 6.06894
Au 22.8659 15.616 10.2822
Pd 10.9264 12.9928 8.03537
Au 23.2013 10.905 6.09356
Pd 16.394 12.5633 6.4484
Au 18.3305 6.03957 22.7348
Pd 6.74882 13.1553 16.2519
Au 10.974 16.7454 26.4713
Pd 20.2096 20.0263 13.0947
Au 11.3749 12.2719 17.6908
Pd 13.8883 12.8296 13.8958
Au 12.9761 9.68879 23.0083
Pd 12.1644 17.9943 10.5047
Pd 24.1153 12.7286 19.695
Pd 14.3818 17.4672 14.2088
Pd 21.8337 9.56123 10.3376
Pd 23.6037 8.52065 15.3658
Pd 14.3331 17.4204 7.17928
Pd 21.7916 6.74845 19.9817
Pd 19.0899 9.66109 9.96775
Pd 25.4915 9.52982 9.11171
Pd 2.62951 17.453 18.6559
Pd 12.9503 17.0836 22.4347
Pd 11.0596 24.8218 18.51
Pd 20.5277 15.0764 6.09103
Au 22.3214 25.1579 16.1201
Au 19.108 21.7268 16.0469
Pd 6.40143 13.5647 13.4674
Au 12.7549 14.7301 26.7084
Pd 10.1057 19.2602 7.42899
Au 8.89453 7.69571 11.7818
Pd 7.98213 20.1494 8.66591
Au 20.9679 22.1865 6.28182
Pd 20.5326 14.4425 11.492
Au 18.9502 9.7123 7.0306
Pd 19.3373 26.1732 20.4748
Au 17.5532 19.462 4.62137
Pd 14.0545 24.8517 19.152
Au 15.3252 21.0229 26.7712
Pd 18.2422 13.1822 11.0198
Au 16.9612 14.3473 25.9383
Pd 21.3948 15.5849 25.2896
Au 6.01437 20.2094 21.4896
Pd 17.3939 25.3423 10.6277
Au 24.8553 17.7052 14.1655
Pd 20.0564 10.5608 14.497
Pd 15.825 14.3786 15.4896
Au 16.5297 5.54025 8.00667
Au 17.2566 26.3307 15.4527
Pd 10.2419 11.603 20.1446
Au 4.38086 12.5911 14.9924
Pd 23.7021 19.6704 15.8144
Au 6.62267 23.8954 10.5413
Pd 11.5955 20.4523 16.7857
Au 25.0636 10.4829 13.9541
Pd 24.8589 22.4899 19.2161
Au 20.6391 11.4175 11.7864
Pd 13.3689 4.21945 16.9767
Au 12.9009 27.0249 17.8659
Pd 26.465 20.1652 19.2336
Au 23.1049 24.4088 18.6435
Pd 22.6011 19.0594 13.5233
Au 16.6129 15.9281 17.4734
Pd 13.7586 24.9745 8.08428
Au 10.9398 19.3976 26.7917
Pd 15.3111 12.8728 20.4594
Au 18.2491 6.61012 17.8118
Pd 14.9538 22.4113 18.1575
Pd 8.909 9.75227 13.5916
Au 25.9584 21.2014 16.8453
Au 10.6624 23.0094 16.2375
Pd 18.2795 24.057 8.37662
Au 23.1964 5.41873 17.5766
Pd 13.9096 9.83527 5.8503
Au 9.28799 24.5279 9.92095
Pd 19.2998 12.9155 13.5372
Au 10.8825 3.30597 16.5408
Pd 7.04685 6.19856 16.7627
Au 9.31507 6.58816 7.04077
Pd 19.5283 21.7936 8.41107
Au 22.7019 20.1482 5.82121
Pd 19.5545 23.5869 19.5024
Au 18.5019 8.88652 22.5138
Pd 22.8716 21.5341 12.411
Au 6.48007 16.5855 9.93373
Pd 17.9124 26.5218 22.7893
Au 10.8722 18.2382 21.1589
Pd 10.0351 17.0891 5.73302
Au 6.66155 6.87236 10.6673
Pd 16.2695 12.1083 24.6947
Pd 19.5738 11.3375 17.8357
Au 19.4104 20.1149 10.442
Au 8.4375 10.1823 21.5517
Pd 16.475 9.81046 6.44897
Au 25.3491 16.5812 8.0165
Pd 25.6776 15.9493 10.5364
Au 15.6931 3.83434 12.0057
Pd 22.4307 12.9824 12.9537
Au 20.8385 3.87926 16.9791
Pd 17.7897 17.7138 19.4381
Au 7.93482 12.9499 21.3149
Pd 9.22202 8.00261 4.59413
Au 22.6533 11.1602 22.0208
Pd 24.6838 17.8863 19.8586
Au 11.8396 9.72566 18.5251
Pd 21.5846 20.0455 8.25914
Au 11.7942 15.8475 3.02717
Pd 4.91455 17.7376 16.8084
Au 24.4084 20.5563 21.0296
Pd 11.2256 7.72834 23.3578
Au 11.4779 5.4594 8.08568
Pd 13.5434 22.2716 15.8615
Pd 21.4951 22.3315 24.0808
Au 3.50718 16.68 21.0984
Au 20.792 25.7821 18.2609
Pd 7.58314 10.1302 16.434
Au 15.6239 5.17117 18.1428
Pd 16.3024 14.8592 10.6092
Au 15.6787 10.2357 20.3938
Pd 25.4072 7.16267 17.3757
Au 24.3679 15.3373 20.9169
Pd 20.8999 18.9063 15.7938
Au 8.66247 18.6478 25.3175
Pd 23.498 15.4957 13.0809
Au 18.1373 21.6939 6.15384
Pd 6.79473 14.536 8.15546
Au 20.1725 20.0016 4.98507
Pd 11.6288 21.5634 6.81046
Au 16.8273 20.2569 11.296
Pd 22.0509 16.4867 19.972
Au 10.1161 19.6006 10.1816
Pd 20.8514 6.81283 22.5179
Au 11.1606 23.3659 20.7607
Pd 18.9978 9.01811 16.5829
