665
Atoms. Timestep: 20196
Pd 7.77397 8.20293 8.36967
Pd 5.07345 8.22115 12.395
Pd 3.33349 9.06578 16.6742
Pd 3.62621 8.79995 19.4209
Pd 6.86694 8.69151 22.8669
Au 8.52469 9.42108 6.01351
Au 5.72088 9.31638 9.949
Pd 6.51873 10.4958 7.5856
Au 3.22845 9.39801 14.0159
Pd 3.89543 10.5363 11.6195
Au 3.60362 11.1763 18.2941
Pd 3.53392 11.6462 15.4544
Au 4.69238 9.83104 21.7363
Pd 4.76804 12.2671 20.5905
Au 8.02088 9.81471 25.1068
Pd 5.8754 10.9945 23.985
Au 7.29201 11.6942 5.25328
Au 4.60306 11.6744 9.18345
Pd 5.37974 12.8066 6.82823
Au 4.18963 12.8908 12.9741
Pd 4.93025 14.0515 10.5112
Au 3.66732 13.6247 17.3574
Pd 3.98207 14.7547 14.994
Au 5.93319 13.4571 22.8648
Pd 4.8493 14.7928 19.497
Au 7.11958 12.0895 26.1431
Pd 7.24243 14.5441 25.0654
Au 8.52051 15.063 4.02355
Au 5.63408 15.2032 8.05364
Pd 6.47759 16.3597 5.61464
Au 4.46227 15.8454 12.5924
Pd 5.11772 16.9004 10.1767
Au 3.79234 16.3345 17.2778
Pd 4.18669 17.5232 14.8597
Au 6.05364 15.9742 21.7057
Pd 4.97296 17.5477 19.3524
Au 8.57712 15.7685 27.0963
Pd 7.40887 16.9769 23.923
Au 7.34856 17.3543 3.26785
Au 5.81234 17.9821 7.69007
Pd 6.79372 19.246 5.17757
Au 4.64629 18.6543 12.4016
Pd 5.28868 19.639 9.93707
Au 3.94866 19.0876 17.1228
Pd 4.35093 20.2695 14.691
Au 6.13862 18.7123 21.4799
Pd 5.2399 20.2778 19.1449
Au 8.6856 18.2371 26.0194
Pd 7.56011 19.61 23.5624
Au 8.48115 23.5523 4.35197
Au 5.98715 20.6575 7.42401
Pd 7.41034 21.3537 3.37633
Au 4.86976 21.4155 12.1815
Pd 5.51344 22.2674 9.63442
Au 4.19964 21.8144 17.0226
Pd 4.5309 22.9002 14.5144
Au 6.25578 21.4022 21.3248
Pd 5.80526 22.9066 19.024
Au 8.93087 20.8578 25.4743
Pd 7.90932 22.2032 23.3002
Pd 9.81042 7.15368 6.84688
Pd 7.06746 7.06315 10.7659
Pd 9.10891 5.93671 9.18194
Pd 5.25884 7.98593 15.0742
Pd 7.24311 6.87597 13.4686
Pd 5.48827 7.77718 17.7867
Pd 7.47281 6.7139 16.1847
Pd 5.77817 7.63647 20.5487
Pd 7.70679 6.56606 18.9231
Pd 9.10522 7.56748 23.919
Pd 8.01831 6.48096 21.6555
Pd 11.0358 10.5305 5.72735
Au 12.2965 8.23424 6.47164
Au 10.2405 9.43997 8.12721
Pd 8.18788 10.5638 9.73337
Au 9.46742 8.22083 10.5331
Pd 12.7151 10.6173 7.91352
Au 7.44909 9.36597 12.1366
Pd 5.53714 10.5742 13.7943
Au 7.65977 9.18769 14.9
Pd 9.90437 10.6085 11.9757
Au 5.63248 10.291 16.5369
Pd 6.02393 12.4978 18.1269
Au 7.88088 9.01719 17.6544
Pd 8.07983 11.5578 16.3598
Au 5.90769 10.0625 19.3306
Pd 7.06946 11.1602 21.6191
Au 8.14954 8.8681 20.4488
Pd 8.34564 11.3483 19.1606
Au 9.31893 9.98028 22.7608
Pd 10.4129 11.0795 25.04
Au 11.5294 8.769 23.9655
Pd 11.7647 11.2323 22.6628
Pd 9.79092 12.798 4.89594
Au 12.628 12.5007 4.56051
Au 8.97873 11.7503 7.3138
Pd 6.99285 12.9152 8.92713
Au 10.6859 11.808 9.54821
Pd 11.4901 12.8981 7.0746
Au 6.22485 11.7541 11.3382
Pd 6.61421 14.1232 12.7373
Au 7.9411 11.7964 13.5903
Pd 8.67893 12.9768 11.1463
Au 5.8981 12.9068 15.2598
Pd 6.10101 14.9398 17.0754
Au 8.48949 13.8011 17.9216
Pd 8.35647 14.1562 15.0595
Au 7.15766 13.6247 20.4276
Pd 8.41048 14.7906 22.6148
Au 9.54146 12.4703 21.4493
Pd 9.67738 14.932 20.198
Au 8.26626 12.3171 23.8507
Pd 9.46813 13.4018 26.1398
Au 12.8888 12.2992 25.0091
Pd 10.7269 13.55 23.7526
Pd 10.1128 16.9863 2.90711
Au 11.3748 14.7449 3.68278
Au 7.68567 14.0638 6.41536
Pd 8.10865 16.3962 7.81757
Au 9.43705 14.1312 8.67166
Pd 10.2285 15.1633 6.20184
Au 7.3452 15.2896 10.2694
Pd 6.90791 17.0932 12.2852
Au 9.08141 15.366 12.5476
Pd 9.84043 16.5047 10.0625
Au 6.4027 16.005 14.672
Pd 6.20654 17.6637 16.9059
Au 8.61426 16.2866 16.8522
Pd 8.89135 17.3207 14.436
Au 7.29887 16.095 19.284
Pd 8.53482 17.3727 21.474
Au 10.8983 16.0981 22.3912
Pd 9.87971 17.3758 19.074
Au 9.74317 15.8494 24.8408
Pd 10.9667 17.1602 27.0058
Au 11.9031 14.6896 26.1148
Pd 12.2423 17.184 24.7073
Pd 9.03814 19.3708 3.47233
Au 11.7366 19.2597 3.0929
Au 8.9308 17.4374 5.37261
Pd 8.32532 19.1725 7.42886
Au 10.6298 17.5612 7.58177
Pd 10.5953 19.6163 5.65839
Au 7.54659 18.1323 9.86051
Pd 7.10614 19.9122 11.9943
Au 9.39225 18.3541 12.0339
Pd 10.0884 19.3188 9.61376
Au 6.59686 18.807 14.446
Pd 6.37362 20.4391 16.6632
Au 8.71004 19.0663 16.5908
Pd 9.0751 20.1651 14.0969
Au 7.48481 18.7651 19.0722
Pd 8.59768 20.1524 21.127
Au 11.0678 18.7966 21.2083
Pd 10.1807 20.0132 18.6786
Au 9.94841 18.3404 23.7045
Pd 11.311 19.6758 25.7682
Au 12.8618 18.9838 27.8829
Pd 12.6195 19.7308 23.3913
Pd 6.21003 22.4159 5.44558
Au 10.3488 21.6873 3.69802
Au 8.51329 21.3085 5.74142
Pd 7.40035 22.9104 7.78889
Au 9.94651 21.4551 7.92404
Pd 9.5848 23.8461 6.70308
Au 7.76532 20.9109 9.52721
Pd 7.23805 22.7149 11.5924
Au 9.55842 21.2366 11.5724
Pd 9.32184 23.4195 9.68685
Au 6.75059 21.5874 14.168
Pd 6.38231 23.2401 16.4106
Au 8.72696 21.9548 16.2049
Pd 6.7802 24.2324 13.7843
Au 7.87713 21.4106 18.7347
Pd 8.27756 23.0379 20.7717
Au 10.7675 21.764 20.6421
Pd 8.21641 24.0931 18.2864
Au 10.2046 20.9141 23.157
Pd 11.0148 22.5512 25.0536
Au 13.4861 21.6479 25.2075
Pd 10.0655 23.647 22.6966
Pd 11.1318 4.91131 7.64935
Pd 9.2567 5.76774 11.8832
Pd 11.2942 4.69321 10.3179
Pd 9.48927 5.63655 14.595
Pd 11.5329 4.56829 13.0231
Pd 9.71858 5.50546 17.3216
Pd 11.7611 4.45724 15.7514
Pd 9.95705 5.38987 20.0499
Pd 11.9914 4.35773 18.4977
Pd 10.2581 5.37235 22.7206
Pd 12.2428 4.30408 21.2194
Pd 13.8926 10.2603 5.45247
Au 13.5652 5.96714 7.27249
Au 11.5353 7.12614 8.93327
Pd 11.9314 9.46993 10.3749
Au 11.6982 6.98545 11.7029
Pd 13.9656 8.34422 8.71131
Au 9.66877 8.0831 13.2912
Pd 10.1157 10.4759 14.7361
Au 11.9282 6.87097 14.4481
Pd 12.1359 9.36779 13.1444
Au 9.8979 7.94539 16.0401
Pd 10.3354 10.3173 17.4925
Au 12.1558 6.75551 17.2046
Pd 12.358 9.24932 15.8949
Au 10.1286 7.80738 18.7996
Pd 10.6075 10.1618 20.2936
Au 12.3915 6.65719 19.9925
Pd 12.5867 9.12076 18.6677
Au 10.4308 7.71299 21.5896
Pd 13.9742 10.0297 23.8425
Au 12.6544 6.49202 22.8281
Pd 12.8434 8.95631 21.5199
Pd 14.2101 14.5647 3.52391
Au 15.4631 12.253 4.35401
Au 14.2757 12.6308 6.81929
Pd 13.1529 13.0293 9.35084
Au 14.3733 10.7291 10.1822
Pd 15.8159 14.6611 5.77255
Au 12.3495 11.8677 11.8074
Pd 10.362 13.0394 13.4126
Au 12.5586 11.7614 14.5787
Pd 14.8019 13.1448 11.654
Au 10.527 12.8437 16.1844
Pd 10.9829 15.1224 17.7127
Au 12.7867 11.618 17.3501
Pd 12.9917 14.1415 16.0245
Au 10.8009 12.6526 18.9921
Pd 11.9953 13.7439 21.3197
Au 13.0318 11.4382 20.1866
Pd 13.2472 13.942 18.833
Au 14.2126 12.5018 22.5708
Pd 14.694 14.1601 25.8332
Au 15.7717 11.8573 24.7635
Pd 16.032 14.3532 23.4438
Pd 12.9625 16.8304 2.68091
Au 15.7776 16.6343 2.49256
Au 13.0209 14.9127 5.92856
Pd 11.9203 15.2916 8.48434
Au 14.7052 15.0693 8.27306
Pd 14.5671 17.0098 4.867
Au 11.1359 14.2245 10.959
Pd 11.5451 16.6269 12.3632
Au 12.805 14.3153 13.2607
Pd 13.6025 15.4338 10.7931
Au 10.8099 15.4498 14.8981
Pd 11.0974 17.6667 16.6453
Au 13.4423 16.4505 17.5136
Pd 13.2426 16.7553 14.7089
Au 12.2153 16.2157 20.0097
Pd 13.3668 17.3673 22.2397
Au 14.4733 15.0494 21.209
Pd 14.7781 17.6604 19.9715
Au 13.1524 14.813 23.6559
Pd 13.7304 16.5578 26.9513
Au 16.463 15.9038 26.8661
Pd 14.999 16.5924 24.547
Pd 13.122 21.5325 3.59265
Au 14.5144 19.0802 2.91597
Au 11.7571 17.2024 5.02742
Pd 12.2159 19.8347 7.87432
Au 13.4383 17.3658 7.32317
Pd 13.3206 19.4732 5.33965
Au 12.3473 17.6867 9.84163
Pd 11.8762 19.5518 11.7587
Au 14.0369 17.8276 12.1549
Pd 13.9555 19.9388 9.98441
Au 11.3406 18.6401 14.2024
Pd 11.0987 20.5282 16.1482
Au 13.5485 19.0888 16.3904
Pd 11.4932 21.5267 13.6079
Au 12.4921 18.6566 18.8587
Pd 13.4247 20.3088 20.8134
Au 15.2789 19.0118 23.2006
Pd 12.7684 21.2583 18.1792
Au 14.0947 18.9914 25.6454
Pd 14.9148 20.9505 27.4138
Au 15.5371 18.3422 27.9621
Pd 14.9048 21.5438 22.6342
Pd 11.1854 24.0613 4.62307
Au 13.4668 24.1649 6.01686
Au 11.9072 21.9443 6.01475
Pd 11.4731 25.7431 6.83722
Au 13.8571 22.1257 8.14827
Pd 13.7147 25.5296 8.32569
Au 11.7199 21.6484 9.97739
Pd 8.75966 24.9451 11.7981
Au 11.0885 23.6581 11.7784
Pd 11.7164 23.6227 8.22568
Au 9.11212 22.9777 13.6361
Pd 8.60912 24.6565 15.7303
Au 11.1031 23.424 15.5272
Pd 10.349 25.3985 13.8764
Au 10.5179 22.7343 18.1177
Pd 10.6564 25.3725 17.4283
Au 10.3892 24.5623 20.0698
Pd 12.5706 25.8217 15.3562
Au 12.4465 22.4614 22.6656
Pd 13.1573 24.2989 24.4489
Au 14.6011 23.6028 26.7029
Pd 12.1405 25.1424 21.9874
Pd 13.3131 3.77212 8.75221
Pd 13.5941 3.61597 11.4146
Pd 15.8293 4.16988 9.80801
Pd 13.8253 3.50703 14.1483
Pd 16.0664 4.01299 12.5378
Pd 14.0471 3.4146 16.9057
Pd 16.2822 3.89391 15.3023
Pd 14.2743 3.34655 19.6652
Pd 16.4977 3.79359 18.0747
Pd 14.5257 3.457 22.3476
Pd 16.707 3.7431 20.8142
Pd 15.181 7.9807 6.26088
Au 16.0106 6.50266 8.41782
Au 13.7682 5.96084 10.072
Pd 14.1845 8.29308 11.5247
Au 16.269 6.4216 11.2212
Pd 16.4223 8.89044 9.92452
Au 13.9976 5.83724 12.8292
Pd 14.4104 8.19299 14.2814
Au 16.486 6.29341 13.9939
Pd 16.6702 8.78458 12.7024
Au 14.2198 5.73168 15.589
Pd 14.6315 8.08998 17.0439
Au 16.7017 6.17712 16.7725
Pd 16.8882 8.65981 15.468
Au 14.4478 5.64748 18.3652
Pd 14.8565 8.00493 19.8371
Au 16.9247 6.08388 19.5826
Pd 17.0948 8.53174 18.2585
Au 14.6859 5.64217 21.1409
Pd 15.0676 7.77954 22.7109
Au 17.11 5.93604 22.4217
Pd 17.2891 8.38205 21.1259
Pd 16.9701 14.3132 3.32438
Au 16.7335 9.9316 5.20203
Au 15.5371 10.3384 7.66892
Pd 15.9509 12.7648 9.14011
Au 16.8472 11.2877 11.3807
Pd 17.0874 12.3465 6.63298
Au 14.6023 10.657 12.967
Pd 15.0247 13.062 14.4223
Au 17.081 11.1593 14.1627
Pd 17.2563 13.6558 12.8489
Au 14.823 10.5553 15.7339
Pd 15.2436 12.9393 17.1914
Au 17.2869 11.0153 16.9531
Pd 17.4812 13.5137 15.6403
Au 15.0447 10.433 18.5219
Pd 15.4613 12.7338 20.0307
Au 17.4937 10.8535 19.791
Pd 17.6818 13.3445 18.4471
Au 15.2678 10.2254 21.4072
Pd 17.548 13.695 25.6148
Au 16.8575 9.58637 23.6257
Pd 17.0419 12.0788 22.2993
Pd 17.3292 18.8179 2.9284
Au 18.6221 16.3672 2.57947
Au 17.3134 16.727 4.78312
Pd 16.2489 17.1376 7.21232
Au 17.5044 14.7858 8.07
Pd 18.1274 19.0775 7.00549
Au 16.4071 15.1856 10.6009
Pd 15.2502 15.5619 13.0966
Au 17.6769 16.0117 14.3189
Pd 16.9273 17.5907 12.0366
Au 15.4375 15.4295 15.8604
Pd 15.8696 17.778 17.3525
Au 17.8949 15.8444 17.1535
Pd 18.1532 18.3373 15.877
Au 15.667 15.279 18.7109
Pd 16.3582 16.8673 22.1289
Au 17.2732 14.5899 20.9343
Pd 17.4992 17.1515 19.636
Au 17.8696 16.1934 24.4171
Pd 18.2925 17.6302 27.7797
Au 19.3496 15.4347 26.6001
Pd 20.6101 15.7775 24.1569
Pd 16.052 21.2494 3.42546
Au 18.3549 20.8376 4.86114
Au 16.1227 19.2715 5.20356
Pd 14.9565 19.616 7.53705
Au 16.8327 19.74 9.46041
Pd 16.9304 21.4442 7.29737
Au 15.2023 17.5147 9.6851
Pd 15.7711 20.0135 11.9374
Au 16.0538 20.3812 16.1006
Pd 17.6454 22.081 11.9429
Au 15.704 18.034 14.5181
Pd 13.4506 21.9187 15.6219
Au 16.5778 19.6154 20.9278
Pd 13.7678 19.8774 13.8675
Au 15.1184 20.072 18.6649
Pd 12.9735 23.1561 20.0159
Au 18.1277 18.8636 23.2347
Pd 15.2239 22.5984 17.5593
Au 16.8212 18.3351 25.6052
Pd 17.5538 20.1677 27.3581
Au 21 17.1953 27.4945
Pd 16.1723 20.833 25.0488
Pd 15.7671 23.8868 7.41603
Au 17.1056 23.1124 5.21789
Au 14.789 21.8102 5.64561
Pd 13.4495 24.0046 10.3952
Au 15.7391 22.2823 9.99951
Pd 16.8227 26.5825 12.0022
Au 13.6177 21.8117 11.8852
Pd 11.2551 25.5837 9.8467
Au 15.5777 24.1662 12.0841
Pd 14.3404 26.4884 10.8614
Au 13.135 23.8937 13.5858
Pd 12.2872 26.0364 12.2835
Au 15.4471 22.0486 13.7931
Pd 14.6902 26.2475 13.6362
Au 12.9786 24.0397 17.4023
Pd 14.4453 26.3252 17.2153
Au 15.1199 24.7609 19.2217
Pd 15.0219 24.3131 15.4658
Au 14.5358 24.2256 21.8745
Pd 15.2196 25.9347 23.7273
Au 17.116 22.7067 26.6866
Pd 12.6716 25.8078 19.3734
Pd 18.1047 4.89708 8.27483
Pd 18.3221 4.64803 10.969
Pd 20.5442 5.40127 9.44709
Pd 18.5297 4.49182 13.7093
Pd 20.777 5.15693 12.1548
Pd 18.7368 4.35772 16.4708
Pd 20.9781 4.97743 14.898
Pd 18.9385 4.24438 19.2371
Pd 21.1605 4.81805 17.6914
Pd 19.1148 4.26603 21.939
Pd 21.3355 4.77667 20.4556
Pd 17.6799 8.6411 7.4817
Au 17.3955 6.38958 6.1267
Au 18.502 7.12478 9.64512
Pd 18.9085 9.45717 11.1243
Au 20.9866 7.66041 10.8421
Pd 20.1691 9.17111 8.64258
Au 18.7399 6.9299 12.4112
Pd 19.1369 9.28629 13.8975
Au 21.202 7.43775 13.6146
Pd 21.4023 9.95668 12.3388
Au 18.945 6.77643 15.1823
Pd 19.3312 9.12696 16.6826
Au 21.3795 7.23966 16.4132
Pd 21.5786 9.74942 15.15
Au 19.1491 6.64188 17.9777
Pd 19.5192 9.00743 19.4927
Au 21.5824 7.1326 19.2245
Pd 21.7789 9.59314 17.9408
Au 19.3331 6.58734 20.7916
Pd 18.9925 7.8234 23.2553
Au 20.9897 6.03343 22.8531
Pd 21.1707 8.46749 21.6617
Pd 18.274 11.9051 4.19686
Au 19.2905 10.6792 6.43726
Au 18.0559 10.9776 8.90594
Pd 18.4619 13.3517 10.3414
Au 20.5447 11.5546 10.1098
Pd 19.6411 13.0332 7.8181
Au 19.3239 11.8056 12.5815
Pd 19.7139 14.1035 14.0809
Au 21.8011 12.2428 13.8328
Pd 20.9792 13.8732 11.5777
Au 19.5401 11.6236 15.3883
Pd 19.9272 13.9349 16.9161
Au 21.9933 12.0462 16.6965
Pd 22.2038 14.4738 15.4339
Au 19.723 11.4768 18.1998
Pd 19.3016 12.7533 20.6758
Au 21.3539 10.9349 20.3736
Pd 21.5878 13.3959 19.1004
Au 19.1089 10.2602 22.0217
Pd 18.6483 11.444 24.448
Au 20.8141 9.72378 24.1538
Pd 20.9241 12.1685 22.8625
Pd 19.4113 18.3686 4.61714
Au 19.6337 13.8568 3.03982
Au 18.6211 14.3056 5.50092
Pd 18.0279 17.2369 9.48398
Au 20.0517 15.3713 9.26583
Pd 19.149 16.5905 6.83242
Au 18.8928 15.6707 11.8245
Pd 19.4207 17.9362 13.3951
Au 21.513 16.0176 13.2055
Pd 20.8204 17.3884 10.9694
Au 20.1555 16.374 15.6137
Pd 17.8001 19.5647 18.3546
Au 19.7997 17.7568 18.0225
Pd 20.9364 19.0062 15.5899
Au 19.5152 15.247 19.3476
Pd 19.08 16.4479 21.8931
Au 21.1182 14.6557 21.5432
Pd 21.3544 17.1131 20.1933
Au 18.8411 13.9229 23.188
Pd 22.2329 15.0662 26.2021
Au 20.4418 13.2501 25.3667
Pd 20.8499 18.2153 23.051
Pd 19.3672 22.6283 6.78069
Au 20.5674 20.2266 6.38452
Au 20.2877 18.4036 8.48172
Pd 19.5163 23.401 13.4624
Au 18.8262 19.5004 11.2348
Pd 20.2383 22.2545 11.0806
Au 17.6056 20.0456 13.8544
Pd 17.5101 22.5651 15.1856
Au 22.0661 18.7322 13.1298
Pd 20.1303 20.667 13.3308
Au 19.3208 20.8788 16.1424
Pd 17.7791 22.1533 17.8848
Au 20.5263 20.364 18.7506
Pd 25.1255 19.2532 17.6978
Au 19.3307 18.9146 20.7199
Pd 15.8307 22.2467 20.2253
Au 20.2185 20.8432 22.6213
Pd 18.5702 21.5403 20.3566
Au 19.6147 18.2455 25.5251
Pd 18.9449 20.9415 25.1558
Au 21.5778 20.1461 24.9108
Pd 17.5941 21.5302 22.8615
Pd 17.9971 23.2659 9.00374
Au 20.5185 24.0156 9.1534
Au 19.2406 20.926 8.85389
Pd 19.1561 26.1312 15.7318
Au 18.4716 24.611 11.2118
Pd 19.3961 26.215 13.1013
Au 16.2025 25.1811 9.66023
Pd 16.4903 26.8347 15.643
Au 17.3039 24.9277 14.027
Pd 19.3857 25.8729 18.4
Au 17.2184 24.6622 16.9795
Pd 16.8438 26.7179 18.5467
Au 21.9772 21.8232 17.0493
Pd 21.6195 25.1328 17.2626
Au 17.7409 24.2226 19.6406
Pd 16.2492 26.3149 21.1827
Au 17.1489 24.0612 22.194
Pd 18.9768 26.0313 21.1404
Au 15.7102 23.3671 24.3504
Pd 16.6858 25.2193 25.8517
Au 21.0117 22.8108 24.2819
Pd 17.8428 26.1477 23.5997
Pd 19.7937 6.84945 7.24466
Pd 22.9676 5.92968 10.6347
Pd 21.3916 8.86893 6.24721
Pd 23.2045 5.67409 13.3772
Pd 25.8085 8.50859 13.3707
Pd 23.3744 5.41772 16.1506
Pd 25.9614 12.0507 17.3582
Pd 23.5594 5.34572 18.9059
Pd 25.531 6.14273 14.7064
Pd 23.1983 6.58901 21.3717
Pd 25.35 7.18721 19.8134
Pd 18.9512 8.36957 5.1198
Au 20.5371 10.3609 4.13763
Au 22.2406 7.34958 8.38737
Pd 22.59 9.7521 9.88007
Au 24.5299 7.95435 9.6225
Pd 23.7471 9.49979 7.49695
Au 23.5006 8.0928 12.0722
Pd 23.8105 10.3244 13.6256
Au 27.2954 10.5168 12.4859
Pd 25.0498 10.2107 11.0724
Au 23.6297 7.90324 14.9014
Pd 26.3091 10.6997 14.9611
Au 25.7256 5.96216 17.3819
Pd 25.4008 12.2574 12.9087
Au 23.825 7.74004 17.6628
Pd 24.0674 10.1597 16.4438
Au 26.1045 8.31262 16.1801
Pd 23.9084 13.9417 17.6167
Au 23.4385 9.0449 20.1232
Pd 22.7984 7.94373 23.7123
Au 25.0095 8.49339 22.2415
Pd 25.6829 9.59932 18.6071
Pd 20.8776 12.759 5.2845
Au 22.8635 10.9207 5.31912
Au 21.7485 11.2838 7.65328
Pd 22.2087 13.6214 9.09283
Au 24.2801 11.821 8.86998
Pd 23.3924 13.2467 6.6713
Au 23.0772 12.0756 11.3247
Pd 23.5936 14.1727 13.0808
Au 27.7463 13.0559 12.3067
Pd 25.2927 13.6637 10.7376
Au 24.2857 12.5803 15.2829
Pd 21.8367 15.8329 17.7985
Au 26.9552 13.3678 14.9709
Pd 24.8811 15.2252 15.3019
Au 23.704 11.503 18.8578
Pd 23.2335 12.826 21.252
Au 25.3193 10.9123 21.0262
Pd 25.5215 13.3759 19.7597
Au 22.9863 10.3881 22.5166
Pd 22.6316 11.6747 24.9486
Au 24.5476 9.85007 24.5026
Pd 24.8352 12.2631 23.3554
Pd 21.5773 17.6887 6.13353
Au 20.5615 15.9015 4.39353
Au 21.3418 14.9541 6.7943
Pd 22.3791 16.6887 8.64835
Au 24.5855 14.929 8.5562
Pd 23.7172 16.1294 6.42608
Au 23.125 15.486 10.8614
Pd 26.2206 15.0679 12.9329
Au 27.4216 16.0928 15.1459
Pd 25.6624 16.4885 10.7309
Au 22.8618 17.151 15.4525
Pd 24.4853 16.5905 17.651
Au 26.5638 14.7125 17.4275
Pd 25.4296 17.8938 15.3141
Au 23.4784 15.2636 19.987
Pd 22.9026 16.59 22.3506
Au 25.0667 14.7315 22.176
Pd 26.0819 16.0461 19.8018
Au 22.7224 14.1039 23.6659
Pd 22.3121 17.5406 25.2654
Au 24.3959 13.6281 25.573
Pd 24.3988 16.0794 24.467
Pd 21.7203 21.7926 8.30575
Au 22.8266 19.301 7.85398
Au 21.4487 19.988 10.3493
Pd 22.7236 21.2452 12.2958
Au 24.8846 17.7031 8.48942
Pd 23.9899 20.7402 9.7394
Au 23.5042 18.257 10.7547
Pd 24.6246 19.5198 13.1513
Au 26.7871 17.7912 12.9783
Pd 25.9636 19.2642 10.835
Au 26.3627 20.3107 15.5485
Pd 23.4303 20.7602 19.1327
Au 27.0627 17.3844 17.5151
Pd 24.1916 16.8525 13.0489
Au 22.4546 18.5734 17.8425
Pd 21.698 22.1443 20.6222
Au 25.5256 17.417 22.1431
Pd 24.0356 17.9476 19.9775
Au 22.1936 19.5036 21.1598
Pd 22.9872 21.4457 22.9436
Au 23.6944 18.8872 23.5048
Pd 24.8967 20.0856 21.4268
Pd 21.1604 24.6982 11.7604
Au 22.8317 23.1041 10.3869
Au 21.8082 22.3026 14.5156
Pd 21.4185 25.0501 14.4964
Au 25.2053 21.991 11.6919
Pd 24.7309 21.9994 14.3008
Au 19.7985 23.6028 16.1435
Pd 23.4595 23.8834 15.8338
Au 26.9851 20.537 13.0168
Pd 23.3616 23.8212 12.9609
Au 26.6294 18.6892 19.8761
Pd 24.7628 21.9251 17.0593
Au 26.0404 21.2597 19.3028
Pd 23.4602 19.9854 15.5564
Au 20.1907 23.2313 18.737
Pd 20.3763 25.3681 23.4138
Au 24.3611 22.6705 20.9109
Pd 23.1747 23.5272 18.7108
Au 19.7369 23.4797 21.8207
Pd 18.4897 23.6313 24.5099
Au 22.4888 24.0408 22.3809
Pd 21.3701 25.044 20.2138
