665
Atoms. Timestep: 20387
Pd 8.83313 8.4686 7.30164
Pd 8.52354 11.182 14.504
Pd 9.3128 13.727 18.5585
Pd 3.9922 11.0875 14.7171
Pd 8.07451 14.1102 20.8906
Au 10.0216 9.81567 5.34431
Au 3.65071 9.94354 12.3271
Pd 7.87922 11.0081 6.7932
Au 5.81962 8.94318 11.0023
Pd 4.30794 10.7391 9.81567
Au 4.64465 19.0479 18.9129
Pd 5.40495 11.9859 11.9043
Au 5.5783 9.07197 18.5575
Pd 6.67477 10.3377 16.4195
Au 5.78568 12.7054 21.2799
Pd 5.72133 15.4318 21.3079
Au 9.00032 12.3919 4.75616
Au 6.3619 9.47273 8.31822
Pd 6.90481 13.6235 6.20738
Au 3.88636 13.3578 10.1461
Pd 4.54234 15.9263 10.3236
Au 3.98723 13.8625 19.5607
Pd 3.62917 13.7129 14.9511
Au 9.1893 20.2829 24.2449
Pd 8.06183 16.6084 22.1486
Au 6.98214 14.303 23.457
Pd 9.44792 21.3339 20.3142
Au 9.69264 16.957 3.38019
Au 5.00148 14.8003 7.97967
Pd 6.01253 16.248 5.91777
Au 3.31652 17.7242 17.0036
Pd 3.00682 12.5903 12.6067
Au 4.65738 21.0529 11.2672
Pd 3.70176 19.0547 13.3118
Au 11.3834 24.9849 22.207
Pd 6.88388 17.4115 19.6977
Au 15.1106 17.2461 27.7457
Pd 15.5235 19.1905 23.4327
Au 7.98816 15.0015 4.19774
Au 5.52823 17.6334 8.32165
Pd 6.60719 18.9624 6.09687
Au 3.05759 16.5709 12.3822
Pd 4.18395 18.5098 10.6721
Au 6.61059 19.428 23.3044
Pd 5.31389 18.9399 15.4462
Au 8.73904 19.1221 21.8481
Pd 6.17152 21.5514 15.9501
Au 16.0949 19.2676 26.1937
Pd 8.21591 17.8394 24.845
Au 8.43319 20.9816 6.68594
Au 5.66322 23.033 9.61534
Pd 7.08255 17.5121 3.82174
Au 3.86126 22.8772 16.4791
Pd 7.38106 22.3682 13.6001
Au 7.97548 19.6805 15.1364
Pd 10.2014 20.4225 17.4427
Au 5.17739 18.1297 21.5105
Pd 6.76938 20.163 20.3362
Au 11.9884 16.4354 25.2843
Pd 13.4153 22.7891 18.6485
Pd 11.0558 7.26695 6.06328
Pd 7.97657 7.9011 9.78642
Pd 9.9013 6.18401 8.19927
Pd 6.1145 9.99165 13.5213
Pd 7.40828 7.12069 12.2961
Pd 4.25899 16.5137 19.3998
Pd 8.07966 5.29061 19.3227
Pd 6.42505 14.579 18.6983
Pd 8.82815 5.08494 13.3752
Pd 12.2449 3.34349 19.7886
Pd 10.4067 15.2957 21.8684
Pd 11.693 11.7946 4.51394
Au 12.6942 9.22999 5.10078
Au 11.524 9.28161 7.66999
Pd 9.39866 10.3276 9.10908
Au 10.5687 8.05338 9.9608
Pd 13.2191 11.3342 6.77514
Au 8.4386 9.72593 11.9929
Pd 7.91295 8.51896 14.5789
Au 10.6106 9.63553 14.3268
Pd 11.0666 10.0993 11.6191
Au 4.90548 7.63148 13.16
Pd 6.07264 14.7884 15.5564
Au 11.8854 5.36905 16.6838
Pd 9.89803 11.1529 18.6206
Au 2.68751 12.662 17.3952
Pd 6.7538 7.34474 20.2477
Au 8.16897 8.60141 22.2008
Pd 11.9308 12.9085 18.3194
Au 7.25673 7.46186 17.197
Pd 11.6814 21.0442 24.9138
Au 9.7572 7.23546 20.4722
Pd 11.0421 14.2331 26.5371
Pd 10.6852 14.3809 3.90155
Au 13.3609 13.7627 3.57409
Au 10.4973 11.8621 7.03916
Pd 8.37337 13.0199 8.4671
Au 12.1029 11.3598 9.38637
Pd 12.2285 13.9025 6.13505
Au 7.16081 11.2248 10.1158
Pd 7.08441 16.6514 10.3951
Au 8.93698 13.984 14.6333
Pd 9.96685 12.4666 10.6545
Au 3.70205 10.215 17.0973
Pd 3.93228 15.0753 17.1921
Au 9.39799 9.39457 16.7108
Pd 4.88531 14.5597 12.6999
Au 5.95321 16.8103 23.7548
Pd 6.96697 11.6192 23.4638
Au 6.96662 11.7053 18.9668
Pd 5.20854 12.5957 17.0546
Au 9.2576 10.3768 23.8044
Pd 17.3467 17.2849 24.4324
Au 11.894 13.9373 24.0016
Pd 8.32445 11.3414 21.2018
Pd 11.5363 18.8177 4.12309
Au 12.3774 16.3648 3.0859
Au 9.52087 14.4647 6.40954
Pd 7.52214 15.6152 8.00781
Au 11.0888 14.0042 8.6967
Pd 11.233 16.51 5.58104
Au 5.67298 12.2261 8.11406
Pd 6.50064 13.9673 10.2675
Au 8.02733 12.678 12.3232
Pd 9.04541 15.0156 10.2129
Au 5.10909 8.3808 15.6508
Pd 5.9117 16.9924 17.2772
Au 8.22615 15.4952 16.9126
Pd 7.46019 15.2318 12.757
Au 3.58139 20.3635 16.6745
Pd 9.16719 16.2576 19.4231
Au 9.40416 12.9773 23.1221
Pd 10.4504 17.7819 23.4072
Au 8.50013 13.144 25.5907
Pd 11.5646 15.2209 19.4796
Au 9.47458 15.4182 24.4031
Pd 10.7141 18.7268 25.9735
Pd 8.86501 19.3758 4.49958
Au 10.7421 21.2594 5.13334
Au 8.57153 17.0761 5.91245
Pd 8.08844 18.544 8.21874
Au 10.0706 16.6273 8.15994
Pd 10.3756 19.0152 6.68359
Au 6.76407 19.1545 10.5646
Pd 5.62226 17.2877 12.6074
Au 8.32593 17.7982 12.648
Pd 9.58982 18.2527 10.3985
Au 4.15827 16.5114 14.7751
Pd 6.99745 19.4994 17.6642
Au 9.15918 17.9319 16.8521
Pd 7.12516 17.0807 14.8825
Au 7.76789 21.7401 22.3811
Pd 9.13536 18.9327 19.2937
Au 13.3455 19.1105 26.6758
Pd 11.2069 20.248 22.2076
Au 9.60038 16.4715 26.8665
Pd 17.9885 16.5055 21.8839
Au 11.9876 22.6851 21.0059
Pd 17.0675 21.0945 24.4048
Pd 8.20152 22.8506 8.80362
Au 10.4162 22.9251 7.31797
Au 6.3466 20.6894 8.43671
Pd 6.29385 19.914 13.096
Au 9.80292 20.6607 9.0307
Pd 10.1727 24.584 9.57976
Au 7.33779 21.6282 11.0201
Pd 12.3982 24.7411 8.02337
Au 9.17289 20.3189 12.6712
Pd 9.85092 22.4648 11.1954
Au 4.35332 21.6063 14.0246
Pd 9.44625 21.8965 15.3891
Au 12.6596 19.6197 16.5827
Pd 10.6114 19.3788 14.8489
Au 8.37402 24.7102 18.4602
Pd 5.92237 23.9619 17.69
Au 13.5091 18.8297 21.3854
Pd 5.47075 23.4572 12.1975
Au 14.3808 21.1636 25.1753
Pd 13.8019 21.2133 22.5364
Au 15.0463 25.05 18.3849
Pd 8.26255 26.3296 16.212
Pd 12.0604 4.86345 6.96334
Pd 10.9921 4.00199 12.1772
Pd 14.6249 6.90338 11.9986
Pd 10.0484 7.55803 12.6864
Pd 11.311 8.71056 18.7342
Pd 14.0067 4.35726 15.5642
Pd 15.3944 2.37747 16.8231
Pd 14.1391 6.76412 17.4019
Pd 14.6538 6.45517 20.288
Pd 13.0605 10.1923 24.8306
Pd 8.15028 5.90115 22.0313
Pd 14.3897 11.2256 4.24916
Au 13.6932 6.77303 5.86876
Au 12.6203 6.79684 8.52465
Pd 13.2051 8.79405 10.2443
Au 11.3711 4.43385 9.52952
Pd 14.2437 8.82867 7.49
Au 9.344 5.69652 10.808
Pd 12.9488 10.9161 14.5031
Au 9.61935 6.69415 15.2753
Pd 12.7045 8.4762 13.0846
Au 6.6548 6.18903 14.7429
Pd 8.26863 9.19851 19.2432
Au 10.1527 3.92488 18.1735
Pd 12.2642 10.5364 17.1105
Au 9.77996 6.72123 17.8772
Pd 12.4303 7.89917 21.0728
Au 10.2061 4.60185 20.8763
Pd 14.0061 8.92695 18.9554
Au 8.0274 4.88996 16.6361
Pd 16.0565 12.6239 25.3439
Au 12.7942 5.18182 21.8203
Pd 11.7288 11.4316 22.761
Pd 15.085 15.7451 2.85752
Au 16.0832 13.1822 3.34103
Au 14.9018 13.341 5.86738
Pd 13.746 13.4656 8.47655
Au 14.7818 10.9239 9.15297
Pd 16.6177 15.3403 5.04294
Au 13.6462 10.9797 11.8453
Pd 10.8737 12.2731 13.2248
Au 14.7027 11.5615 18.0324
Pd 15.2338 13.1053 10.8038
Au 10.595 12.292 16.0241
Pd 7.86681 12.7132 16.6713
Au 4.27276 11.2828 19.4357
Pd 13.4282 13.2193 16.2212
Au 14.193 14.0037 19.1594
Pd 14.2049 12.1988 23.3362
Au 6.06931 9.93291 21.1107
Pd 12.5613 10.9225 20.0423
Au 12.9228 13.782 21.5034
Pd 10.3988 9.78171 21.1037
Au 12.1828 16.9812 27.7991
Pd 16.8096 11.9841 22.773
Pd 14.2526 18.2317 3.78717
Au 16.9683 17.6533 3.46265
Au 13.9084 15.9237 5.27569
Pd 12.7602 16.0786 7.83699
Au 15.4384 15.4973 7.58794
Pd 15.8159 17.8264 5.99321
Au 12.4638 13.5576 11.1507
Pd 10.2914 14.9465 12.4426
Au 14.047 13.2218 13.4293
Pd 14.2423 15.6343 10.1461
Au 6.17458 12.551 14.3854
Pd 11.5156 17.7344 18.1532
Au 13.5604 16.0501 17.4557
Pd 11.7909 14.4283 14.5677
Au 10.5793 12.7622 20.6964
Pd 10.9259 15.2693 16.8874
Au 7.24164 15.5406 25.8385
Pd 18.2461 19.2013 22.5781
Au 14.6841 17.1577 25.1557
Pd 17.8258 17.4475 27.0766
Au 10.6798 6.417 22.8403
Pd 15.5975 14.1562 21.6863
Pd 13.4406 20.6789 4.79159
Au 16.1742 20.1077 4.43824
Au 13.0931 18.4188 6.3033
Pd 11.8997 18.6123 8.8964
Au 14.6374 17.9813 8.58013
Pd 15.0227 20.2829 6.97842
Au 11.5616 16.2372 10.3801
Pd 11.1239 17.8578 12.63
Au 13.0282 15.8704 12.6443
Pd 13.4463 18.1829 11.1392
Au 9.80061 16.5457 14.6258
Pd 10.3038 26.4197 14.5029
Au 12.8634 18.8812 24.027
Pd 16.1498 22.4948 12.9288
Au 13.6685 16.4646 20.2725
Pd 12.5329 24.8683 17.3617
Au 18.9629 21.9949 22.6454
Pd 10.6467 22.9663 18.6218
Au 13.7992 15.0544 26.8702
Pd 14.6492 20.8134 19.8483
Au 16.5079 21.1819 21.7059
Pd 16.1513 18.6054 20.7675
Pd 12.7079 23.1012 5.82062
Au 16.9922 22.1137 7.69169
Au 12.2569 20.8897 7.33671
Pd 11.9747 22.5133 9.55653
Au 13.8528 20.4714 9.5565
Pd 15.8243 22.2952 10.2229
Au 11.5557 20.2192 11.208
Pd 14.7295 26.7372 11.3322
Au 9.61907 23.9405 13.5542
Pd 13.568 22.0712 11.8565
Au 12.3752 17.2482 15.1782
Pd 5.37145 24.0676 14.7531
Au 7.68799 23.8371 15.8268
Pd 8.08128 21.992 17.8843
Au 10.7389 26.96 17.1528
Pd 5.28135 21.5488 18.4763
Au 10.1644 24.4102 16.3944
Pd 9.89059 26.0066 11.882
Au 10.2035 22.6138 23.1403
Pd 13.1539 25.2632 20.2343
Au 14.7645 23.3201 20.999
Pd 10.7436 25.5461 19.3816
Pd 16.3268 7.06599 6.82594
Pd 15.2695 7.05882 9.32637
Pd 15.7525 3.25262 9.31901
Pd 10.1185 3.89556 15.3807
Pd 13.8968 4.86009 10.1115
Pd 14.2535 4.33604 18.3316
Pd 13.6955 4.3085 12.6574
Pd 12.2076 2.86691 14.3107
Pd 18.0166 9.74702 22.2486
Pd 15.6256 10.127 24.3271
Pd 16.5689 7.16447 18.4803
Pd 15.3814 8.75341 4.96877
Au 17.3685 5.28824 8.55088
Au 14.7164 5.01132 7.57506
Pd 12.0758 6.35595 11.3506
Au 16.4827 5.21656 11.0875
Pd 15.7627 9.22983 11.0798
Au 12.4226 2.69005 17.0372
Pd 11.9408 8.01216 16.0336
Au 14.1263 6.83979 14.672
Pd 17.2376 7.1321 12.9975
Au 14.053 1.67983 18.9592
Pd 12.0915 5.98326 19.261
Au 16.8653 4.67802 19.2151
Pd 20.9108 6.33579 15.5696
Au 15.3966 5.41472 22.7483
Pd 14.7999 3.62635 20.8114
Au 16.5712 2.09597 19.4425
Pd 16.5321 7.48595 15.7329
Au 19.8872 4.77105 21.7883
Pd 11.3553 8.83351 23.4213
Au 10.874 11.7603 25.3777
Pd 18.108 10.6749 24.8975
Pd 17.7699 15.1912 2.6314
Au 17.1105 10.6886 4.04895
Au 15.9407 10.8155 6.53255
Pd 16.4574 12.9383 8.219
Au 16.232 11.5528 12.8203
Pd 17.637 12.7957 5.65658
Au 15.3327 9.15545 13.7138
Pd 15.405 11.5876 15.3884
Au 17.6019 9.90052 15.2709
Pd 16.7547 13.7771 14.5049
Au 13.6046 7.32841 23.4191
Pd 13.9225 9.71374 22.256
Au 14.427 9.20993 16.2579
Pd 17.5494 12.26 16.812
Au 19.7135 7.65254 21.8527
Pd 20.6773 11.1527 25.3858
Au 21.9395 12.7007 22.6764
Pd 16.8011 13.5343 19.1254
Au 13.3904 12.6217 25.9102
Pd 18.8354 8.22099 24.3689
Au 21.545 6.86051 18.0912
Pd 19.3399 6.17001 19.5512
Pd 18.8984 19.4603 4.28153
Au 19.6847 17.0339 3.30492
Au 18.5409 17.2284 5.7487
Pd 17.3779 17.405 8.30464
Au 18.1709 14.9359 7.32494
Pd 19.197 20.8082 8.84384
Au 16.9761 15.1013 9.89774
Pd 15.7857 15.2744 12.4501
Au 17.1166 16.4841 14.7811
Pd 17.5541 18.7245 13.0484
Au 15.8038 14.4936 16.9408
Pd 16.7578 17.0557 17.5809
Au 18.4998 14.9068 16.6882
Pd 11.0905 17.76 20.796
Au 15.029 11.6577 20.7172
Pd 19.3869 12.3835 23.3441
Au 18.637 13.1201 25.8481
Pd 16.1846 16.0577 19.8787
Au 17.36 14.535 23.8008
Pd 20.6394 20.277 23.8007
Au 15.5252 23.1982 23.6768
Pd 21.226 13.6825 25.1212
Pd 14.2583 22.7265 7.97334
Au 18.1472 21.9192 5.213
Au 17.7676 19.6799 6.73242
Pd 16.5999 19.8476 9.27126
Au 17.9837 20.9988 11.4037
Pd 18.3905 23.2488 9.82016
Au 16.1918 17.5625 10.8625
Pd 14.9841 17.7397 13.38
Au 16.7538 19.79 18.3474
Pd 16.3919 22.7001 15.6921
Au 14.478 15.5115 14.9116
Pd 12.0121 22.2437 16.376
Au 20.9214 14.2558 20.5933
Pd 19.3419 23.6978 17.9827
Au 11.9934 20.258 19.4258
Pd 13.3003 27.1786 18.325
Au 19.2898 15.6761 25.6753
Pd 13.9318 22.3208 14.5876
Au 20.5037 17.0902 21.1639
Pd 18.7415 19.3881 25.425
Au 24.201 22.9197 21.8033
Pd 15.3945 16.6681 22.528
Pd 17.354 24.3179 6.20185
Au 14.646 24.9628 6.44428
Au 15.401 22.5498 5.41193
Pd 16.9035 24.8566 14.0334
Au 15.3883 20.034 11.8293
Pd 12.1698 26.2979 10.274
Au 13.0965 19.6959 13.6569
Pd 7.86601 24.2833 11.2156
Au 14.3749 26.5433 8.66121
Pd 18.7341 25.4355 8.29317
Au 11.4179 21.8549 13.5515
Pd 12.5184 26.5947 12.9312
Au 7.48721 25.4419 13.6332
Pd 21.6556 24.3881 14.9624
Au 11.8207 24.1737 11.8579
Pd 6.98513 22.8943 20.0667
Au 12.9015 26.9409 15.5963
Pd 14.007 25.2726 22.8795
Au 9.26707 23.9234 20.957
Pd 16.8612 25.5584 23.4817
Au 23.1583 21.1831 23.6094
Pd 14.6518 24.7542 15.6854
Pd 18.9595 7.36145 8.04114
Pd 18.1819 3.33976 10.2092
Pd 19.5835 5.62218 10.4053
Pd 11.7704 5.74327 13.9893
Pd 18.3283 4.05533 12.7011
Pd 16.3832 4.9395 16.6548
Pd 15.9451 4.95258 13.8237
Pd 17.9862 2.79468 17.3009
Pd 16.6102 9.70043 17.8188
Pd 19.523 4.8505 17.3552
Pd 19.0667 3.28705 19.6835
Pd 16.8589 9.15423 8.49431
Au 20.6165 9.2958 7.23788
Au 17.7497 7.49652 10.4176
Pd 18.1564 9.68678 12.4273
Au 20.1089 7.93337 11.7964
Pd 19.3826 9.54053 9.7262
Au 18.3262 5.55172 15.0219
Pd 19.2937 8.04759 14.4115
Au 20.2847 5.63436 13.0778
Pd 20.7334 10.2107 13.7416
Au 22.2813 4.40998 16.7506
Pd 18.9177 7.58543 17.1343
Au 21.4547 4.29844 19.2754
Pd 21.2529 8.90959 16.1908
Au 14.7826 2.24522 14.208
Pd 15.9655 8.97321 20.6677
Au 23.3284 9.1938 17.8514
Pd 21.1173 8.84187 19.7231
Au 20.1331 11.3722 20.7655
Pd 21.8773 6.34912 20.8816
Au 22.6111 8.06377 22.827
Pd 16.2578 7.91816 23.1734
Pd 18.7823 12.6704 3.23419
Au 18.5607 11.1271 7.65209
Au 17.355 11.32 10.2611
Pd 17.8944 13.5391 11.9425
Au 19.8774 11.6952 11.5118
Pd 19.062 13.3064 9.38101
Au 18.7355 11.9804 14.0844
Pd 19.3942 14.6535 14.0779
Au 21.4759 12.8326 13.5669
Pd 20.513 14.4199 11.4927
Au 19.2914 10.3037 17.4923
Pd 20.286 12.8515 16.1069
Au 22.3986 11.2839 15.7355
Pd 23.1638 13.8803 15.5347
Au 17.5758 11.192 19.9193
Pd 16.4856 15.2663 26.2192
Au 18.3268 13.7452 21.2776
Pd 18.4945 8.73455 19.6478
Au 17.3535 3.81097 21.7217
Pd 17.2646 6.59246 21.105
Au 20.793 6.34221 23.835
Pd 20.5543 9.94876 23.0257
Pd 19.5646 23.0422 7.32097
Au 21.8603 15.7142 4.41578
Au 19.3586 14.7748 4.73399
Pd 18.7742 18.5318 10.4471
Au 19.5799 16.0641 9.48345
Pd 19.9653 18.3577 7.88064
Au 18.3801 16.2646 12.1018
Pd 19.688 17.3717 14.3375
Au 22.0541 15.528 13.525
Pd 20.9431 17.1823 11.6273
Au 21.1232 15.6636 16.0628
Pd 14.2614 18.4916 18.6094
Au 20.1372 17.626 23.8267
Pd 21.9909 18.3394 16.6806
Au 19.4745 13.0126 18.6541
Pd 14.545 14.6597 24.2313
Au 25.9211 21.2027 20.3501
Pd 24.8971 14.6542 17.558
Au 24.6478 12.1907 22.2534
Pd 23.0135 10.6344 24.0202
Au 18.0843 5.81886 23.5083
Pd 20.3793 20.0565 21.0523
Pd 20.9036 24.1349 9.48639
Au 21.7668 21.77 8.46469
Au 21.3498 19.4728 10
Pd 15.4702 27.1497 16.6303
Au 20.0985 19.6404 12.6352
Pd 20.536 21.9303 11.0022
Au 15.6558 20.2823 14.5411
Pd 14.7535 21.0763 17.0438
Au 22.235 18.2365 13.8879
Pd 14.9118 18.1654 16.0304
Au 17.6274 19.0232 15.811
Pd 16.3877 22.7159 18.6047
Au 22.1057 18.6392 19.5168
Pd 24.6383 19.1683 16.2099
Au 22.1373 16.1809 25.0286
Pd 12.1785 24.4345 14.5936
Au 19.5703 24.8659 23.2081
Pd 20.2084 19.9947 18.1737
Au 20.575 17.8584 26.4762
Pd 21.0075 26.3333 21.5907
Au 22.4653 24.5419 20.3665
Pd 21.493 22.3668 21.9169
Pd 18.7597 23.4559 12.5222
Au 19.9028 25.9155 16.3868
Au 23.085 22.8258 10.6945
Pd 19.7952 24.0194 20.6646
Au 16.9653 26.9215 9.76293
Pd 18.2421 21.2249 14.1359
Au 15.1097 26.9655 13.9992
Pd 13.9847 24.3192 10.2352
Au 18.361 21.4467 16.9165
Pd 15.9075 27.51 19.1616
Au 16.5924 26.6889 7.14614
Pd 14.3484 24.5574 12.9576
Au 25.6919 21.3723 17.4751
Pd 19.0485 23.5945 15.2376
Au 23.4633 22.9624 13.4586
Pd 17.3394 27.0125 12.4606
Au 12.7389 23.2439 23.8583
Pd 17.2356 25.0011 16.7082
Au 17.5812 25.1838 19.3161
Pd 15.6979 25.9048 21.0867
Au 20.794 22.8311 24.52
Pd 21.0488 22.1947 16.4982
Pd 21.3561 7.67747 9.42815
Pd 22.2935 6.17791 11.5333
Pd 22.1768 11.3442 6.43312
Pd 22.678 5.09114 14.1083
Pd 24.5295 6.89577 13.4773
Pd 17.2966 2.91404 14.8172
Pd 25.8541 10.0596 17.0606
Pd 23.8161 8.02016 20.2441
Pd 20.1902 3.68884 15.0206
Pd 25.634 13.2056 19.8071
Pd 24.1717 12.0456 17.6988
Pd 18.023 9.01501 6.01715
Au 19.7212 10.945 5.13691
Au 23.824 8.22887 11.1258
Pd 21.8229 9.8811 11.1235
Au 25.6103 9.24104 12.8636
Pd 22.9969 9.68458 8.67791
Au 22.1653 7.94009 13.6096
Pd 23.4312 10.8707 13.0501
Au 24.623 10.7537 10.576
Pd 25.1717 13.4981 10.4898
Au 16.0292 2.78858 11.9861
Pd 27.6579 12.98 14.4835
Au 25.4312 7.60818 18.0103
Pd 26.1221 11.8759 12.55
Au 26.1622 7.86024 15.395
Pd 24.0218 9.27928 15.1195
Au 27.117 10.3357 14.7323
Pd 22.5918 10.2791 21.326
Au 28.327 15.6666 14.5151
Pd 22.0807 13.8543 17.9511
Au 27.2019 11.2078 19.0588
Pd 23.5589 6.82688 16.1279
Pd 20.2175 13.1382 6.8168
Au 21.3304 12.9888 4.34595
Au 21.087 11.5034 8.90987
Pd 21.6943 14.2149 8.91195
Au 22.8446 14.0394 6.37045
Pd 21.1188 18.1776 5.38217
Au 22.5972 12.5622 10.9848
Pd 24.1469 13.646 13.0107
Au 23.7352 12.3671 8.44377
Pd 26.711 14.5791 12.4795
Au 25.0477 11.9479 15.042
Pd 21.6022 11.1799 18.3661
Au 26.7831 12.7035 17.0072
Pd 27.1708 19.9279 13.1429
Au 27.622 15.2338 17.169
Pd 24.3163 17.1666 23.6315
Au 23.7611 5.6831 18.7411
Pd 22.3556 18.6905 22.365
Au 22.3242 24.5251 23.0887
Pd 20.0171 15.0112 23.1245
Au 18.043 23.4842 24.758
Pd 23.7209 14.0521 24.1028
Pd 22.5057 19.2894 7.51212
Au 20.3768 20.6361 6.327
Au 20.7674 15.8821 6.90126
Pd 22.1378 16.9793 9.03048
Au 24.2585 15.1516 8.43765
Pd 23.2431 16.818 6.5338
Au 23.1387 15.3012 10.9797
Pd 27.2189 17.2411 12.4133
Au 25.4628 21.4516 14.7046
Pd 25.6587 16.2445 10.4823
Au 23.8131 16.5825 15.5528
Pd 23.0198 12.5186 20.1483
Au 25.7999 14.7386 15.034
Pd 26.2384 17.4744 17.5336
Au 25.1794 14.9564 22.065
Pd 18.7331 15.6546 19.3006
Au 24.8831 10.4585 19.8256
Pd 22.5795 18.8338 24.9547
Au 24.8729 9.50093 22.3627
Pd 24.2148 17.4173 20.9355
Au 21.3983 8.61574 25.1277
Pd 23.5023 15.0337 19.9611
Pd 20.8333 22.1061 13.7321
Au 23.9357 20.4238 9.64124
Au 22.6664 20.5581 12.2096
Pd 20.2205 19.8634 15.3888
Au 24.6402 17.944 8.63755
Pd 25.1703 21.3839 11.9635
Au 23.5224 18.0643 11.1752
Pd 24.7529 19.0715 13.441
Au 25.9931 19.0201 10.8496
Pd 27.28 19.7877 15.8565
Au 28.7398 17.6442 16.6142
Pd 21.2325 16.2623 18.6937
Au 28.9051 18.2805 14.146
Pd 24.6927 16.3588 13.0033
Au 19.3997 17.556 17.1661
Pd 21.3122 22.2367 19.2478
Au 26.6907 18.3813 20.7469
Pd 26.1143 15.8651 19.6828
Au 24.9615 19.6151 22.4047
Pd 12.7501 16.3477 22.7493
Au 22.519 15.6928 22.386
Pd 28.3497 17.0948 19.1259
Pd 16.2023 24.5244 8.65977
Au 19.5615 25.8118 13.6788
Au 19.199 25.6868 10.9532
Pd 24.8253 19.2604 19.0099
Au 21.36 24.3477 12.1922
Pd 23.6915 22.9178 16.2642
Au 16.5808 24.7164 11.3302
Pd 23.2064 20.7355 20.6739
Au 22.8297 20.6984 14.9769
Pd 17.7157 27.1426 15.1443
Au 23.7629 16.9606 18.1902
Pd 26.3969 17.4555 14.9073
Au 24.0479 22.8418 19.0344
Pd 22.9434 20.6939 17.7605
Au 18.368 26.5335 21.3818
Pd 18.104 27.3102 17.7946
Au 21.9661 24.4863 17.7105
Pd 27.4895 19.6119 18.5247
Au 18.6006 18.3819 19.7383
Pd 17.3337 23.7904 21.6074
Au 18.5349 21.6049 19.8086
Pd 20.1869 26.1068 19.0721
