665
Atoms. Timestep: 20725
Pd 5.88811 16.0368 8.35763
Pd 6.99721 15.865 19.462
Pd 9.53824 13.3649 13.7177
Pd 18.0737 9.29916 14.0607
Pd 22.5825 11.8327 23.3695
Au 21.7889 17.7994 3.79012
Au 15.0034 10.3225 10.8211
Pd 6.6269 11.3407 17.84
Au 15.9485 3.83519 10.0997
Pd 13.4531 4.52634 9.37374
Au 11.299 5.99154 8.9604
Pd 11.593 20.7866 13.454
Au 4.5317 15.053 19.816
Pd 13.328 16.9468 22.5111
Au 12.8508 19.5713 25.21
Pd 13.8565 15.1193 5.13761
Au 9.10055 9.33038 6.61409
Au 16.5116 4.9648 15.443
Pd 8.88396 6.32467 17.6905
Au 16.3822 5.79826 8.30184
Pd 15.9725 25.3163 16.4246
Au 6.26263 8.49278 13.0665
Pd 5.31411 11.2453 13.6852
Au 6.81193 24.0734 17.4841
Pd 10.8752 18.288 13.557
Au 14.8563 24.0265 24.6741
Pd 15.3148 20.1746 20.3333
Au 4.46576 16.0344 10.8072
Au 4.84588 12.6664 11.458
Pd 20.7956 5.61163 13.8554
Au 12.894 7.92524 25.3288
Pd 14.3268 7.92461 23.0541
Au 15.0738 26.9152 18.5698
Pd 10.6517 16.981 11.112
Au 16.1301 25.815 23.1889
Pd 14.0328 21.188 17.7567
Au 18.5253 7.88852 25.3874
Pd 13.9869 13.847 19.9294
Au 7.94433 11.7531 7.00143
Au 7.51479 7.48028 10.8431
Pd 5.61323 8.08727 19.771
Au 8.8461 8.18411 13.3516
Pd 4.32675 10.5337 18.9448
Au 17.4702 19.926 4.58139
Pd 12.8795 16.562 12.9608
Au 12.4531 17.7727 27.5564
Pd 15.9457 22.276 16.211
Au 5.34119 17.9594 15.7805
Pd 12.0208 17.6991 18.1046
Au 4.63725 14.8985 13.1588
Au 13.8123 19.4028 6.68179
Pd 13.2494 11.9999 11.8582
Au 19.1826 14.7101 5.94341
Pd 5.09675 8.65364 17.2236
Au 6.2363 20.392 11.9325
Pd 11.7353 25.8293 8.68235
Au 4.86078 20.313 17.297
Pd 9.8534 23.0351 25.163
Au 4.82635 22.6095 18.6665
Pd 10.3121 17.3004 15.9845
Pd 12.985 8.09329 9.76818
Pd 15.7344 10.3414 5.98163
Pd 10.5944 9.11258 8.99749
Pd 25.2534 9.10273 15.0633
Pd 10.5875 12.7279 16.2036
Pd 14.6005 4.31137 21.5621
Pd 16.9578 5.7347 18.5716
Pd 12.6564 22.1318 23.8447
Pd 6.9322 9.91108 15.5345
Pd 11.693 7.35938 16.298
Pd 9.17299 23.2279 19.6281
Pd 7.90256 18.4472 5.16302
Au 17.6572 15.8313 2.67516
Au 6.49472 14.3635 10.3354
Pd 22.2732 11.7139 17.9133
Au 21.0239 6.93473 9.54929
Pd 11.0847 20.7459 6.80755
Au 9.13068 11.5167 20.1916
Pd 10.6194 15.8518 22.1528
Au 5.43484 17.3615 21.2112
Pd 15.7894 15.3064 9.62238
Au 12.6304 26.1385 17.2219
Pd 16.1866 2.71027 12.4929
Au 12.3667 9.91374 23.4958
Pd 13.8213 15.6742 17.9122
Au 9.20174 10.8439 17.4685
Pd 14.1836 13.1281 9.55216
Au 11.5909 10.9646 19.1221
Pd 8.21732 16.8692 21.6788
Au 6.01673 11.935 8.9499
Pd 12.8636 15 27.2993
Au 15.5384 11.7064 20.3676
Pd 15.642 12.5143 24.9969
Pd 17.0074 20.0087 9.26082
Au 7.64578 22.5385 11.0063
Au 12.6868 10.0303 13.9742
Pd 9.49092 16.9912 24.257
Au 19.453 10.7086 5.41257
Pd 12.3703 20.0124 8.97421
Au 4.52399 12.3749 21.0308
Pd 13.1115 5.5195 23.4119
Au 6.2367 14.7897 25.3173
Pd 21.8415 10.7678 6.69923
Au 11.8404 27.7127 15.1253
Pd 15.4523 15.9358 13.915
Au 10.1559 6.51646 20.9037
Pd 19.746 17.5209 20.8102
Au 11.9892 4.33698 21.0036
Pd 10.4054 20.6417 24.262
Au 18.9538 9.87518 16.5212
Pd 15.3511 23.4218 18.5315
Au 7.70402 9.78923 24.2933
Pd 11.5433 13.357 9.75386
Au 12.5906 4.84869 16.3408
Pd 15.2383 22.1784 22.6758
Pd 21.745 18.0219 8.61464
Au 20.3794 22.3402 5.86052
Au 12.8769 9.03571 2.76658
Pd 12.237 12.9791 5.25178
Au 16.7632 14.3782 15.7695
Pd 8.25873 18.3573 11.8843
Au 16.8147 2.30335 15.0554
Pd 6.66336 16.1247 5.73553
Au 9.56833 24.0123 17.1222
Pd 6.00081 18.1461 10.3495
Au 16.045 26.4919 13.7345
Pd 6.61752 15.6764 14.8775
Au 11.1197 24.5348 23.491
Pd 14.8869 16.4655 20.2887
Au 22.3637 21.8799 17.6267
Pd 16.4652 11.4747 27.2513
Au 7.37561 19.5299 16.922
Pd 15.6914 20.0908 24.8016
Au 7.18908 21.537 18.686
Pd 9.67859 4.18466 19.6679
Au 9.46125 26.8879 14.1264
Pd 14.3312 26.7825 21.4297
Pd 11.8988 4.30692 13.6865
Au 18.842 24.0551 10.1461
Au 6.80676 14.1661 17.3135
Pd 10.472 12.8363 22.473
Au 7.82265 22.603 8.30929
Pd 13.5782 18.2746 2.87125
Au 15.3493 19.9152 11.6042
Pd 21.8508 7.37953 12.2489
Au 11.6848 9.58991 11.6042
Pd 10.1378 22.4151 11.77
Au 4.25292 13.9616 9.04268
Pd 15.3254 23.8172 14.1715
Au 11.4519 5.86465 18.615
Pd 7.85189 10.9023 13.2008
Au 15.785 7.76198 25.3452
Pd 18.4409 20.1683 25.3438
Au 7.73193 21.4802 24.1174
Pd 17.6808 23.4571 22.6538
Au 7.04359 12.2725 25.0252
Pd 6.70414 13.1411 19.8107
Au 13.9879 14.3511 15.6116
Pd 16.0365 18.1963 21.8788
Pd 14.8545 21.4704 9.38132
Au 14.9276 20.24 4.22115
Au 19.19 18.0799 2.83371
Pd 7.85824 22.025 15.9632
Au 11.8242 22.8226 5.14726
Pd 13.2119 24.6862 6.64754
Au 8.74328 7.56165 23.0401
Pd 19.7717 18.5151 18.3513
Au 7.92236 18.1477 14.5475
Pd 13.4259 23.7007 9.26378
Au 6.94812 22.8198 13.5659
Pd 8.80393 14.289 20.938
Au 11.6425 22.1174 15.9069
Pd 14.6396 16.5597 7.35511
Au 26.1426 19.6603 14.9382
Pd 9.21711 25.0612 21.4787
Au 10.9888 14.5192 24.6045
Pd 12.2524 16.0152 20.11
Au 11.5813 21.474 26.5691
Pd 17.9842 23.2085 17.5893
Au 12.6251 27.5858 19.4702
Pd 14.8823 16.6455 27.0617
Pd 7.80955 12.4084 15.5377
Pd 17.3854 11.8651 15.3723
Pd 11.3812 7.76941 6.91605
Pd 20.7545 13.4735 19.3983
Pd 19.1803 5.16147 15.8574
Pd 16.2775 9.65202 16.2803
Pd 18.9214 4.10015 19.6588
Pd 18.5554 13.3387 3.73538
Pd 15.8281 16.9039 16.4097
Pd 9.76213 5.98427 15.1438
Pd 9.2032 16.3245 4.28897
Pd 17.055 11.0948 3.75012
Au 6.97558 7.26834 15.5253
Au 25.2546 9.25008 10.2199
Pd 15.8412 7.60655 14.4715
Au 19.6093 11.9282 13.7737
Pd 27.5455 16.606 10.8039
Au 18.9228 5.01871 8.89582
Pd 22.6723 8.87838 8.5934
Au 17.8433 8.67427 4.80699
Pd 15.3449 10.1146 13.6884
Au 7.49083 4.05798 18.3202
Pd 11.4957 15.152 14.7995
Au 12.2871 16.8293 25.085
Pd 12.8082 12.8888 17.6752
Au 15.7507 5.73204 23.5802
Pd 14.9167 13.0328 22.5791
Au 12.792 11.7002 21.435
Pd 11.6473 14.4258 12.147
Au 7.87436 16.6302 26.2944
Pd 13.454 24.957 19.6197
Au 7.34953 5.89229 13.2374
Pd 13.9044 8.7238 15.9363
Pd 17.3542 11.2338 12.5227
Au 20.9882 12.8428 4.82755
Au 14.5092 11.1975 2.58969
Pd 8.94081 20.9401 26.4812
Au 6.10021 13.7897 6.97441
Pd 22.8749 9.57984 11.1532
Au 8.87326 7.2196 8.41146
Pd 11.3993 7.64366 13.5984
Au 4.10159 9.6375 21.3511
Pd 14.3314 3.47504 14.5216
Au 12.6175 10.8759 9.39826
Pd 9.20237 14.5007 11.1209
Au 5.21863 20.1558 20.0882
Pd 9.36297 8.60136 15.9401
Au 6.22139 19.4037 22.7246
Pd 7.60495 12.2481 22.3996
Au 10.9541 9.20579 4.61559
Pd 6.70938 23.891 20.1959
Au 9.46082 20.6825 20.2638
Pd 9.7725 21.3933 17.6886
Au 14.2675 11.5228 15.7521
Pd 20.8073 20.0498 16.4004
Pd 17.48 22.5009 8.5101
Au 11.9934 15.9696 3.19776
Au 9.60929 20.5258 4.51236
Pd 11.0988 15.4999 5.88946
Au 14.5164 27.7735 15.9786
Pd 19.0483 18.2617 7.82389
Au 4.43346 11.0733 16.2686
Pd 9.69189 11.5406 9.0622
Au 15.6097 5.34846 12.8789
Pd 23.0777 17.1431 12.6369
Au 17.6338 16.6804 12.2294
Pd 10.2704 7.39473 10.9807
Au 9.34238 24.3234 9.68371
Pd 12.2742 3.26594 18.4599
Au 20.6139 23.9447 22.3545
Pd 13.7349 22.2273 20.3735
Au 6.35476 8.39492 22.2901
Pd 11.884 23.072 18.4184
Au 12.7547 12.3982 24.3961
Pd 11.0846 24.9277 15.1869
Au 8.37803 14.5483 23.6684
Pd 19.8114 24.1134 12.9138
Pd 14.6043 18.4614 18.2734
Au 22.6417 20.0178 5.20999
Au 14.6508 18.5248 9.20216
Pd 5.20204 13.4017 15.3422
Au 15.0268 12.6736 4.83921
Pd 8.31696 14.0283 8.48419
Au 5.27701 17.8427 18.5225
Pd 12.713 17.5299 5.23911
Au 8.91448 5.21975 10.1408
Pd 9.00615 14.9094 15.915
Au 9.54184 3.39362 14.4125
Pd 18.2723 21.0569 15.8636
Au 18.6044 15.9662 17.3456
Pd 9.53265 22.4644 22.4415
Au 10.3383 18.6948 26.2056
Pd 12.7496 14.3824 22.3582
Au 21.1963 19.4489 11.9687
Pd 22.1338 16.2254 10.4389
Au 19.1774 11.0889 26.3636
Pd 25.9286 12.9488 17.484
Au 25.7426 15.6264 17.3327
Pd 18.1036 19.3511 11.8337
Pd 16.52 18.6085 6.99552
Au 9.81335 26.6922 16.8096
Au 11.6513 11.4524 3.05052
Pd 5.52488 10.7781 23.1652
Au 13.3226 26.1427 23.9865
Pd 19.5799 20.1618 9.75894
Au 7.52602 18.7519 19.8732
Pd 9.62661 18.7689 18.1118
Au 9.1391 24.7924 12.4909
Pd 13.3603 22.0315 7.22272
Au 7.68027 16.8971 17.1398
Pd 10.1294 10.6698 14.3773
Au 4.41883 8.92783 14.7553
Pd 7.88163 12.1984 10.8597
Au 8.17195 16.6572 9.73064
Pd 19.395 21.6654 21.4863
Au 13.6507 23.74 16.4641
Pd 14.1406 25.0662 11.9693
Au 25.9806 10.3744 12.6282
Pd 13.1654 18.6231 20.5239
Au 17.1659 24.4336 12.3498
Pd 12.5525 21.648 11.0184
Pd 26.074 13.9952 11.1925
Pd 11.3787 10.6831 6.91238
Pd 9.11489 13.5146 18.3207
Pd 10.5571 15.5854 8.80546
Pd 11.3899 9.03577 20.9612
Pd 14.9439 6.39645 10.5015
Pd 13.7806 3.66025 11.8415
Pd 20.6989 3.1237 12.8226
Pd 11.296 15.0912 17.4767
Pd 14.8498 17.6511 24.6192
Pd 11.2506 13.5846 19.9463
Pd 20.8097 13.2722 7.39646
Au 23.8515 14.1753 9.40567
Au 13.2913 13.6297 2.80535
Pd 13.9769 8.17607 12.4018
Au 19.8647 12.468 24.1237
Pd 20.9184 7.42392 20.3786
Au 18.3378 5.72487 23.8354
Pd 13.6833 9.25452 7.40415
Au 11.7586 10.1942 16.5824
Pd 18.2287 13.2947 17.9251
Au 22.1174 12.829 14.5077
Pd 10.5272 18.1899 20.6092
Au 17.294 4.48109 21.7249
Pd 20.8083 16.7667 23.0722
Au 14.9172 3.44077 17.1427
Pd 20.0537 12.2446 16.4748
Au 18.5227 1.52733 13.0456
Pd 10.4628 11.919 11.7764
Au 9.98453 3.88117 17.001
Pd 16.5041 14.2683 20.8277
Au 7.5894 6.2129 20.1193
Pd 9.62185 16.1783 19.1411
Pd 20.0278 19.5354 4.90823
Au 17.74 10.0835 10.1503
Au 16.5754 21.2773 13.7209
Pd 8.5172 14.1049 5.65985
Au 19.5322 14.4445 15.0368
Pd 25.9407 20.4384 11.8281
Au 17.2576 17.4693 9.70404
Pd 23.6206 7.04507 10.3374
Au 14.8801 15.9031 2.70032
Pd 10.3223 8.48486 18.5361
Au 12.535 6.04379 11.6377
Pd 7.58408 8.70221 18.064
Au 6.12323 6.22674 17.8269
Pd 12.8691 14.5662 7.65361
Au 8.68701 13.9962 26.2964
Pd 17.1094 17.6093 19.1173
Au 8.51988 8.74717 20.589
Pd 20.4592 9.61857 10.1263
Au 14.1449 5.209 19.0867
Pd 19.5834 22.0737 24.0461
Au 22.0488 3.69993 15.1969
Pd 18.3323 6.77148 20.8788
Pd 16.0893 11.4025 8.45519
Au 25.087 16.4812 21.8049
Au 24.8648 21.1669 9.44725
Pd 15.8096 7.63862 6.2929
Au 10.3747 13.9147 3.64496
Pd 11.2114 3.95621 10.8627
Au 21.2646 26.5807 17.6472
Pd 11.8889 10.5289 26.1705
Au 13.2193 17.0927 15.6478
Pd 4.48373 13.0618 18.1017
Au 7.52828 4.63812 15.7547
Pd 15.522 12.8101 17.7196
Au 16.5382 12.945 10.7645
Pd 14.8093 22.4795 11.983
Au 12.7828 18.7421 11.2827
Pd 24.8179 20.6828 18.4448
Au 10.3967 15.9832 26.9164
Pd 8.79518 16.4323 7.07635
Au 5.2922 22.5676 15.9235
Pd 6.65647 16.8996 23.7896
Au 20.3203 22.7124 15.5919
Pd 24.1399 11.5659 15.992
Pd 6.13278 10.2156 11.1036
Au 23.5132 21.6961 11.7184
Au 8.4402 20.3487 7.00485
Pd 19.809 15.7722 8.44458
Au 7.61862 9.65169 8.85756
Pd 16.4605 18.5381 13.854
Au 16.127 13.4824 2.54565
Pd 5.03648 13.2746 23.5353
Au 26.7047 11.4092 15.1459
Pd 21.9431 18.5516 14.5587
Au 8.20423 25.7589 18.9408
Pd 8.58667 20.6442 13.1888
Au 21.3974 14.4725 16.9012
Pd 13.6092 24.2358 22.2869
Au 14.2512 21.8818 26.166
Pd 15.9432 26.6875 10.9849
Au 13.7748 12.4105 27.0035
Pd 11.6741 24.3744 10.9599
Au 19.3692 9.39443 21.2749
Pd 18.3288 12.4176 20.4715
Au 17.3106 20.593 22.7936
Pd 17.6383 27.8367 18.3117
Pd 17.4804 21.9219 11.1697
Au 10.0947 21.5653 9.22363
Au 14.6132 22.8464 5.02314
Pd 18.075 16.5948 14.7626
Au 27.6822 15.3867 13.0521
Pd 19.8064 26.2105 8.78415
Au 23.0082 16.7294 16.8778
Pd 8.05653 24.8238 15.103
Au 18.7335 26.3638 14.063
Pd 22.2819 9.81205 19.8665
Au 8.84557 19.3709 22.5274
Pd 10.3446 19.7787 11.1841
Au 7.13838 21.5881 21.4498
Pd 23.1918 14.2561 12.0674
Au 5.41299 18.0277 13.0779
Pd 13.9808 19.7886 22.7656
Au 17.1496 27.7311 15.7959
Pd 10.3573 18.311 6.04812
Au 13.8455 27.8136 13.0797
Pd 13.6063 25.6769 14.655
Au 25.4281 18.3039 17.4225
Pd 17.9361 23.8106 14.9162
Pd 21.7047 6.17423 16.4213
Pd 10.5115 13.2219 7.21087
Pd 8.97285 9.74007 11.1322
Pd 19.6805 9.85401 24.0217
Pd 20.08 5.08272 21.8287
Pd 14.0541 9.33655 20.7293
Pd 18.2677 4.11374 13.4136
Pd 14.5955 19.2862 27.1646
Pd 16.7045 15.6856 25.2338
Pd 15.7141 8.44879 8.97186
Pd 13.5588 6.28209 14.334
Pd 17.4956 5.77378 11.0862
Au 9.85728 18.5853 8.74103
Au 13.3396 7.7455 5.13094
Pd 21.7984 11.9306 11.9101
Au 12.3016 20.2485 4.44658
Pd 23.3968 12.9408 6.93259
Au 22.7207 8.09862 14.7383
Pd 25.092 15.4355 13.5446
Au 19.4854 11.192 8.20036
Pd 24.2526 13.9862 22.6819
Au 15.1466 10.4259 23.062
Pd 20.098 7.43516 23.0275
Au 18.1022 19.6006 20.4217
Pd 18.4493 3.18692 10.9195
Au 15.3697 8.87584 3.75721
Pd 14.7951 6.39531 16.8149
Au 23.5527 5.6693 14.1021
Pd 17.1942 10.8377 18.4505
Au 17.4929 13.6888 23.2878
Pd 16.5971 8.26397 11.8488
Au 15.7378 14.1573 27.2869
Pd 11.3982 7.42451 23.144
Pd 9.81104 5.42432 12.5962
Au 15.8461 21.1694 6.77538
Au 24.4344 10.7384 8.14504
Pd 24.1048 19.1345 22.8208
Au 17.8071 3.35189 17.3406
Pd 16.5861 14.9273 4.92666
Au 12.2772 12.6767 14.1855
Pd 18.1299 6.62029 13.7183
Au 26.4164 15.3928 8.80885
Pd 15.6902 6.73501 20.9256
Au 21.6081 16.1987 25.7959
Pd 20.6409 11.6364 21.5799
Au 16.1751 3.38213 19.5518
Pd 11.1646 13.0498 26.7917
Au 14.0731 14.7561 24.9584
Pd 9.79615 19.9848 15.4524
Au 11.8879 20.3226 18.9545
Pd 20.0252 5.29538 11.3735
Au 13.0392 8.07927 18.5346
Pd 11.3958 18.5188 23.1087
Au 10.1792 8.93147 24.9933
Pd 6.53892 10.5385 20.5182
Pd 12.3917 19.5637 16.155
Au 13.0504 16.0017 10.0412
Au 16.462 18.274 2.63907
Pd 9.76189 11.6557 5.01705
Au 24.9684 8.80282 19.5338
Pd 18.8573 24.2853 7.16661
Au 20.7183 17.1088 6.09736
Pd 15.1097 17.2355 11.5572
Au 19.492 21.28 18.5389
Pd 20.2949 16.8966 13.0461
Au 23.5119 20.8058 20.7613
Pd 17.5029 18.0231 24.0194
Au 22.4935 23.9695 12.6994
Pd 17.6997 14.0357 13.0845
Au 15.3104 19.5918 15.956
Pd 15.8711 24.4981 20.958
Au 19.2669 7.93303 11.7804
Pd 20.5564 24.013 17.9166
Au 18.7532 15.2384 19.8416
Pd 16.6566 20.8787 27.1504
Au 11.8936 2.48027 15.6764
Pd 17.8672 18.5757 16.5583
Pd 13.3045 10.4788 4.95175
Au 9.28042 22.7088 6.05473
Au 22.915 23.3579 15.2367
Pd 19.8001 17.5493 10.5294
Au 24.4524 11.8262 10.8557
Pd 21.7773 21.0851 22.7553
Au 6.94163 16.0969 12.2206
Pd 23.4358 10.4737 13.5684
Au 17.3043 16.009 7.40014
Pd 24.869 22.6092 16.7469
Au 21.1153 13.8841 9.95984
Pd 20.2876 22.3949 8.55764
Au 22.41 15.2015 21.2377
Pd 20.1458 15.6555 3.69504
Au 18.4766 8.46137 18.8162
Pd 7.85309 19.0073 25.0164
Au 21.2924 25.0047 10.5225
Pd 25.3237 14.2237 20.1986
Au 12.9766 27.0544 10.6533
Pd 17.957 13.3636 26.0081
Au 21.8765 25.0948 20.0522
Pd 19.9698 14.2306 22.009
Pd 22.1851 20.6515 9.5618
Au 10.7896 25.5619 19.1981
Au 14.5076 26.0501 8.71172
Pd 20.4601 17.1347 16.0524
Au 6.98694 18.3109 7.73929
Pd 13.9352 21.5143 14.5872
Au 10.7396 18.3261 3.39244
Pd 7.83584 20.101 9.74947
Au 22.6693 19.0112 18.4319
Pd 22.1655 15.5508 14.4589
Au 15.3924 17.4846 4.87564
Pd 11.6806 26.1649 12.8776
Au 22.7981 22.0849 7.16397
Pd 21.8779 21.2587 13.9045
Au 9.67996 10.2321 22.6043
Pd 20.7929 22.2513 11.2401
Au 23.1234 23.2893 21.9106
Pd 4.74027 15.6507 17.0548
Au 9.36176 16.0643 13.4078
Pd 23.4669 14.0369 18.4557
Au 25.8915 12.8282 8.55742
Pd 18.5259 20.6915 6.96322
Pd 24.8568 12.7477 13.5572
Pd 17.2609 8.14514 23.0569
Pd 24.9056 16.3192 10.9416
Pd 21.0193 8.53796 17.7261
Pd 21.6224 4.93315 19.6532
Pd 18.3559 7.60182 9.29046
Pd 16.7888 20.4866 18.133
Pd 15.5113 15.6411 22.8581
Pd 24.1919 10.3846 21.6514
Pd 14.2198 10.4962 18.2475
Pd 20.0707 7.87297 15.1328
Pd 22.3134 15.4857 7.69169
Au 14.413 14.5288 11.8754
Au 20.2899 8.60467 7.38365
Pd 6.93934 13.4863 13.101
Au 24.5571 7.96315 12.6676
Pd 20.7728 9.67883 13.0763
Au 26.1833 18.6452 9.79291
Pd 20.4971 14.2952 12.5359
Au 23.7057 18.8273 10.6261
Pd 17.5592 12.4024 6.12162
Au 23.0786 6.96857 18.7482
Pd 22.5778 4.89592 11.7784
Au 27.4713 12.6855 12.9669
Pd 19.2114 21.5373 13.2637
Au 20.5532 13.7617 26.3951
Pd 24.0728 14.2589 15.8002
Au 22.4036 15.0684 5.0845
Pd 17.7263 11.1261 22.6741
Au 17.7191 9.40335 7.36374
Pd 19.0593 23.9108 20.1313
Au 18.6776 15.8119 27.0525
Pd 22.1839 11.5873 9.22711
Pd 20.9917 19.8676 20.3917
Au 26.8036 14.1161 15.2251
Au 25.1706 18.7738 20.3071
Pd 18.5984 14.9124 10.6459
Au 23.9819 16.5519 19.3459
Pd 23.954 19.5681 13.2458
Au 26.9726 16.9113 15.2093
Pd 21.5739 10.3148 15.6064
Au 17.2207 25.8422 8.69235
Pd 24.0123 23.131 19.4079
Au 21.2274 16.2725 18.9444
Pd 15.7412 8.21399 18.5424
Au 20.6698 3.66009 17.5367
Pd 19.6993 19.2999 22.9186
Au 16.7377 9.34814 20.7759
Pd 15.5594 13.9246 7.25577
Au 21.933 18.8415 24.3297
Pd 13.7821 6.5741 7.71806
Au 16.9766 22.4535 25.0158
Pd 19.9168 10.8542 18.9325
Au 24.6471 11.454 19.2029
Pd 9.75481 11.8002 24.8358
Pd 17.5187 22.6907 5.50064
Au 18.3885 6.75942 6.74152
Au 23.395 17.4912 5.96042
Pd 18.1599 17.2752 5.10837
Au 26.1726 17.9143 12.7325
Pd 24.4504 17.5634 14.9578
Au 21.0547 25.3208 15.236
Pd 22.9304 12.6078 20.7731
Au 19.5761 2.54271 15.2665
Pd 17.1038 10.1394 25.0466
Au 23.1187 24.7007 17.5232
Pd 22.5197 17.91 21.2262
Au 23.2947 4.49555 17.5291
Pd 15.661 23.9372 7.29867
Au 24.4371 6.78313 16.4222
Pd 12.1925 17.4798 7.92433
Au 23.3971 7.67318 21.3292
Pd 16.8276 27.133 20.7581
Au 14.4668 10.0992 25.7157
Pd 21.45 22.4895 20.0579
Au 6.24279 14.844 21.9442
Pd 17.1943 25.3231 18.8889
Pd 23.6666 20.1613 15.9713
Au 18.7965 25.8118 16.779
Au 12.4006 23.9788 25.7477
Pd 11.1133 23.4616 7.77963
Au 24.8137 15.112 6.69381
Pd 13.7633 18.9804 13.7515
Au 24.8676 21.9118 14.098
Pd 19.2892 12.1806 10.9063
Au 26.626 16.6261 19.5979
Pd 17.6627 7.3324 16.4725
Au 11.7269 26.2861 21.6407
Pd 23.8155 19.5837 7.63939
Au 21.9104 14.2974 23.9622
Pd 21.0401 20.0635 7.25678
Au 23.5552 9.27207 17.2864
Pd 19.6943 6.1865 18.2566
Au 21.8795 9.38494 22.5594
Pd 19.5248 26.4585 19.5864
Au 17.0588 18.1589 26.6465
Pd 18.0123 16.2076 22.2362
Au 12.9767 6.77597 20.9834
Pd 17.0198 22.1828 20.2533
Pd 6.13293 20.3286 14.6088
Au 10.2099 26.6411 10.7685
Au 21.5029 24.4681 7.64511
Pd 11.4573 23.4974 21.0026
Au 23.3873 16.5976 23.7484
Pd 22.9332 23.2141 9.5918
Au 15.3471 12.8496 13.6557
Pd 19.2816 15.2805 24.5266
Au 26.1152 10.1444 17.4203
Pd 16.3127 15.1717 18.4115
Au 18.0707 13.5038 8.49473
Pd 13.7301 11.9762 7.19774
Au 18.6431 25.7921 22.0154
Pd 15.9014 24.031 10.0591
Au 24.3711 17.1003 8.47419
Pd 21.0901 26.3993 12.7528
Au 18.732 26.4481 11.2961
Pd 9.70709 22.8264 14.2994
Au 19.2793 19.0744 14.2545
Pd 12.4208 23.4034 13.3779
Au 19.6649 17.8589 25.5339
Pd 11.7175 20.824 21.6735
