665
Atoms. Timestep: 20266
Pd 9.14237 8.40553 8.62462
Pd 6.13021 8.52031 12.3623
Pd 3.5288 11.1138 17.4436
Pd 3.37102 8.83622 18.8139
Pd 6.27716 8.971 22.4944
Au 10.1141 9.51926 6.26196
Au 7.02475 9.60365 9.95623
Pd 8.01733 10.7565 7.6344
Au 4.04304 9.73727 13.6962
Pd 5.00425 10.8903 11.3726
Au 2.17187 11.0454 15.1299
Pd 3.24448 8.75128 16.1229
Au 4.23906 10.0726 21.0651
Pd 4.50154 12.3849 19.6574
Au 5.18631 11.3895 23.2863
Pd 5.47491 13.6932 21.8484
Au 8.98653 11.8715 5.28574
Au 5.90597 11.9876 8.98051
Pd 6.90394 13.1272 6.67823
Au 2.99433 12.1603 12.783
Pd 3.96896 13.3002 10.4577
Au 3.69771 13.8267 17.2658
Pd 2.36065 13.8027 14.8781
Au 5.60575 16.4368 21.6851
Pd 4.69823 15.1393 19.4652
Au 6.21567 12.7077 25.3826
Pd 6.45234 15.0332 24.0169
Au 9.47109 16.1844 3.19967
Au 4.87802 14.4132 8.09128
Pd 5.8601 15.5096 5.78439
Au 3.17476 14.9449 12.5247
Pd 4.17201 16.0831 10.1958
Au 3.9242 16.5461 17.0693
Pd 2.62534 16.5889 14.6398
Au 5.7797 19.1756 21.5739
Pd 4.89089 17.9079 19.297
Au 7.46442 16.4209 26.1125
Pd 6.58927 17.7707 23.8681
Au 7.86722 14.2314 4.33813
Au 5.11554 17.1867 7.82838
Pd 6.18568 18.2613 5.53782
Au 3.45373 17.7364 12.3035
Pd 4.48062 18.8545 9.96076
Au 4.17419 19.2755 16.8701
Pd 2.92461 19.3839 14.4215
Au 5.08662 20.6577 19.1052
Pd 4.50789 21.9155 16.5537
Au 7.53216 19.0752 25.9928
Pd 6.8451 20.5213 23.7476
Au 7.76752 20.452 5.9204
Au 4.89883 21.6188 9.77864
Pd 6.84111 16.5779 3.52172
Au 4.36098 23.2277 11.9355
Pd 6.3925 21.6134 12.1391
Au 3.26267 22.0814 14.1368
Pd 9.18357 21.7171 16.964
Au 6.08296 21.7865 21.4066
Pd 7.47932 21.9178 19.1342
Au 9.17112 21.9397 23.7624
Pd 8.43562 23.1172 21.451
Pd 11.2662 7.20804 7.29737
Pd 8.19684 7.28635 11.001
Pd 10.2684 6.07657 9.64394
Pd 5.26173 7.48552 14.7662
Pd 7.33011 6.23896 13.4075
Pd 5.31234 7.51779 17.4959
Pd 7.37536 6.27555 16.1466
Pd 5.38187 7.713 20.2246
Pd 7.42108 6.39132 18.8984
Pd 8.38724 7.88619 23.8283
Pd 7.48755 6.59237 21.6157
Pd 11.7449 11.4281 5.08315
Au 12.8774 9.06383 6.0197
Au 11.6569 9.57464 8.50211
Pd 9.5459 10.8036 9.90649
Au 10.6776 8.46655 10.8971
Pd 13.3096 11.4776 7.32724
Au 8.59316 9.69002 12.2588
Pd 6.53599 10.9348 13.6462
Au 7.68535 8.59261 14.6625
Pd 11.133 10.8887 12.2459
Au 5.61066 9.85474 16.0396
Pd 6.0244 12.2974 17.3617
Au 7.76222 8.68018 17.4452
Pd 8.12288 11.0259 15.9802
Au 5.70338 9.99902 18.7982
Pd 6.67581 11.2953 21.0426
Au 7.80667 8.84709 20.2204
Pd 8.21545 11.1747 18.7524
Au 8.78108 10.1747 22.4979
Pd 9.66213 11.4987 24.7447
Au 7.22912 10.3064 24.6956
Pd 11.269 11.3457 22.5385
Pd 10.6065 13.8053 4.11306
Au 13.3397 13.3297 3.85931
Au 10.5284 11.9055 7.52258
Pd 8.43576 13.1562 8.94259
Au 12.099 11.9878 9.85525
Pd 12.1845 13.8337 6.34783
Au 7.46809 12.0387 11.2686
Pd 5.4481 13.3341 12.7171
Au 9.07542 12.1306 13.6102
Pd 10.0224 13.2402 11.2548
Au 4.52909 12.2039 15.0676
Pd 6.23258 15.016 17.1912
Au 8.57366 13.483 17.3021
Pd 7.03051 13.393 15.0013
Au 6.97945 13.615 19.5772
Pd 7.97566 14.9434 21.7721
Au 9.21821 12.5228 21.0096
Pd 9.56802 14.8446 19.5285
Au 7.65955 12.6438 23.2438
Pd 8.57436 13.9783 25.4833
Au 12.1634 12.6243 24.8681
Pd 10.1733 13.8179 23.3057
Pd 11.1491 18.3097 3.62475
Au 12.1747 15.7625 2.97831
Au 9.41506 14.2534 6.57027
Pd 7.35949 15.548 8.01471
Au 10.9967 14.3402 8.87545
Pd 11.0433 16.2254 5.42165
Au 6.39147 14.4398 10.3406
Pd 5.67502 16.1159 12.5041
Au 7.97223 14.5143 12.645
Pd 8.93794 15.6238 10.302
Au 4.75633 14.9811 14.8769
Pd 6.46172 17.7406 17.0428
Au 8.81445 16.2383 17.1495
Pd 7.28345 16.1723 14.8256
Au 7.17253 16.3735 19.4278
Pd 8.12638 17.6793 21.6444
Au 10.5422 16.1485 21.7665
Pd 9.74192 17.6033 19.3988
Au 8.96435 16.2541 23.9876
Pd 9.86463 17.6888 26.1637
Au 11.0417 15.1779 25.5867
Pd 11.4343 17.5759 24.0034
Pd 8.4525 18.6914 3.93006
Au 10.1227 20.7951 4.41666
Au 8.33262 16.6281 5.6691
Pd 7.69553 18.3481 7.77085
Au 9.90225 16.7177 7.95246
Pd 10.0144 18.7717 6.12085
Au 6.67664 17.2318 10.1264
Pd 5.98265 18.8518 12.2987
Au 8.27173 17.2933 12.4517
Pd 9.29922 18.477 10.0829
Au 5.02013 17.7415 14.6829
Pd 6.72067 20.4438 16.8822
Au 9.0256 18.9669 17.0447
Pd 7.54536 18.9076 14.682
Au 7.35318 19.1577 19.3103
Pd 8.34576 20.4244 21.5363
Au 10.6659 18.9463 21.6321
Pd 9.85917 20.4021 19.2975
Au 9.0727 19.0458 23.857
Pd 9.77753 20.5298 25.9677
Au 14.366 20.7912 26.2769
Pd 11.4406 20.4551 23.8121
Pd 7.16365 22.0561 8.09936
Au 9.44015 22.5433 6.47609
Au 5.51279 19.9346 7.62217
Pd 3.85635 20.4979 12.0734
Au 9.40741 20.5021 8.16649
Pd 8.88783 24.0896 8.72783
Au 7.00459 19.9826 9.92105
Pd 6.28829 25.0363 12.509
Au 8.54026 20.0163 12.3377
Pd 8.78923 21.9759 10.3615
Au 5.34387 20.4876 14.4572
Pd 7.80103 21.674 14.5785
Au 11.5511 20.2544 17.1059
Pd 10.0612 20.1551 14.7565
Au 9.85968 23.187 19.2116
Pd 9.09075 24.5089 17.0819
Au 10.7612 21.8049 21.5083
Pd 5.6506 23.234 14.3285
Au 12.081 22.1158 25.7808
Pd 11.6857 23.3694 23.414
Au 13.8092 24.2454 24.9446
Pd 11.5074 24.3789 20.8465
Pd 12.378 4.91697 8.32668
Pd 9.39265 5.00615 12.0437
Pd 11.4477 3.82242 10.6963
Pd 9.4463 5.04455 14.7958
Pd 11.5131 3.84192 13.448
Pd 9.53718 5.15234 17.5541
Pd 11.6331 3.94792 16.2135
Pd 9.54447 5.28149 20.2898
Pd 11.7034 4.08292 18.9762
Pd 9.58355 5.53514 22.946
Pd 11.6544 4.25348 21.6785
Pd 14.5277 10.9906 4.89894
Au 14.0062 6.73139 7.02876
Au 12.7815 7.247 9.51971
Pd 13.2142 9.65287 10.8521
Au 11.8236 6.12864 11.9382
Pd 14.4229 9.14635 8.33292
Au 9.75787 7.34821 13.3026
Pd 10.2039 9.77722 14.6264
Au 11.9381 6.2109 14.7461
Pd 12.268 8.55198 13.267
Au 9.85707 7.43157 16.0959
Pd 10.2972 9.89463 17.4091
Au 12.0509 6.32982 17.5328
Pd 12.4051 8.65952 16.0762
Au 9.90243 7.55458 18.8654
Pd 10.3255 10.0556 20.189
Au 12.0346 6.46215 20.3205
Pd 12.4239 8.7795 18.8586
Au 9.93905 7.74739 21.6365
Pd 13.3016 10.1475 24.0193
Au 10.8227 9.01785 23.9816
Pd 12.3903 8.92565 21.6738
Pd 14.8997 15.2984 2.80768
Au 16.1411 12.8998 3.70065
Au 14.9143 13.4007 6.13007
Pd 13.7541 13.8996 8.65781
Au 14.8709 11.5603 9.67958
Pd 16.4935 15.3787 4.97669
Au 13.6679 12.09 12.2002
Pd 11.6089 13.3532 13.5784
Au 12.715 10.9861 14.5998
Pd 15.321 13.9815 11.0064
Au 10.6547 12.2295 15.945
Pd 11.1447 14.7217 17.2591
Au 12.8237 11.1254 17.4035
Pd 13.1752 13.4545 15.9288
Au 10.7516 12.4019 18.7361
Pd 11.7422 13.7264 21.0507
Au 12.8037 11.2613 20.2168
Pd 13.2687 13.641 18.7259
Au 13.7409 12.5301 22.641
Pd 14.1429 14.3186 25.5629
Au 15.1681 11.8484 24.9279
Pd 15.6945 14.1471 23.4345
Pd 13.8741 17.8908 3.35728
Au 16.5874 17.4469 3.07179
Au 13.7495 15.8008 5.17514
Pd 12.6276 16.2834 7.69764
Au 15.3446 15.8537 7.46556
Pd 15.5062 17.9489 5.56576
Au 12.5729 14.4392 11.1947
Pd 10.53 15.7237 12.6031
Au 14.1442 14.5473 13.5468
Pd 14.2122 16.3241 9.99715
Au 9.57727 14.6236 14.9458
Pd 11.3848 17.4903 17.1112
Au 13.6889 15.9689 17.252
Pd 12.1269 15.8595 14.924
Au 12.1263 16.0742 19.5208
Pd 13.0429 17.4358 21.802
Au 14.2422 14.9698 21.1422
Pd 14.6385 17.3841 19.5547
Au 12.6489 15.0583 23.4254
Pd 13.2182 16.818 25.8477
Au 16.4317 15.8347 25.8165
Pd 14.8497 16.6323 23.7209
Pd 12.8797 20.4147 4.08586
Au 15.6021 20.0059 3.7572
Au 12.7546 18.3752 5.81647
Pd 11.6513 18.8685 8.31866
Au 14.3909 18.4126 8.09795
Pd 14.5082 20.4558 6.31603
Au 11.4751 16.8147 10.2349
Pd 10.8647 18.5809 12.3991
Au 13.0579 16.923 12.5535
Pd 13.2853 18.8571 10.5589
Au 9.8699 17.4193 14.7632
Pd 14.0312 21.6768 17.2145
Au 13.9266 18.7695 17.2489
Pd 14.6184 22.2347 13.544
Au 12.2598 18.8869 19.4296
Pd 13.0903 20.3204 21.6275
Au 13.7671 19.0669 24.1079
Pd 12.3046 21.7771 19.3117
Au 12.105 19.2721 26.2395
Pd 16.2002 20.4547 24.0902
Au 15.4842 18.3535 26.1131
Pd 13.7074 22.9615 21.22
Pd 13.5524 23.018 6.93756
Au 15.3578 25.0217 7.56146
Au 11.7619 21.0002 6.49713
Pd 11.1781 22.7055 8.58698
Au 13.399 21.067 8.82999
Pd 16.2604 22.5775 6.73929
Au 11.1535 20.6196 10.3755
Pd 8.50179 25.5348 10.9697
Au 10.6807 23.8868 10.9794
Pd 13.2522 23.0035 11.0887
Au 12.4651 18.7462 14.7508
Pd 7.84902 24.8304 14.7418
Au 11.5905 23.1543 17.0481
Pd 9.97575 23.2204 14.8585
Au 13.6406 24.1716 18.5758
Pd 6.87769 23.1316 16.7171
Au 15.4822 24.902 20.5608
Pd 11.1744 25.4529 15.6631
Au 13.9201 21.8625 23.728
Pd 13.4579 25.3223 22.4756
Au 15.3316 26.3158 24.0056
Pd 15.3611 26.8511 18.6916
Pd 15.1178 4.52259 8.19308
Pd 13.5996 2.74816 12.0716
Pd 15.847 3.13891 10.4909
Pd 13.7222 2.83774 14.8208
Pd 16.0261 3.14199 13.2513
Pd 13.8128 2.96117 17.6024
Pd 16.1432 3.23632 16.0352
Pd 13.8608 3.09516 20.3331
Pd 16.2333 3.36242 18.7951
Pd 11.9824 6.63195 23.0631
Pd 16.3063 3.61829 21.4645
Pd 15.6714 8.65537 5.94907
Au 15.5476 6.84649 9.39012
Au 13.8696 4.87796 10.5231
Pd 14.3199 7.33021 11.8619
Au 16.3127 5.43242 11.7406
Pd 15.9792 9.23884 10.7444
Au 14.0259 5.0333 13.3514
Pd 14.4889 7.45746 14.6975
Au 16.4969 5.49857 14.5868
Pd 16.7649 7.83969 13.0966
Au 14.1681 5.14731 16.155
Pd 14.6316 7.56187 17.5063
Au 16.6661 5.61107 17.4106
Pd 16.9753 7.94202 15.9688
Au 14.2759 5.27129 18.9695
Pd 14.5128 7.64276 20.3079
Au 16.7942 5.80602 20.2257
Pd 17.1364 8.07649 18.8138
Au 14.1056 5.31916 21.7724
Pd 14.4261 7.76036 23.1242
Au 16.3367 5.823 23.0094
Pd 16.7159 8.19253 21.6281
Pd 17.6044 14.8923 2.60851
Au 17.3211 10.5665 4.75768
Au 16.0695 11.0533 7.17814
Pd 16.4836 13.478 8.49575
Au 16.4433 11.6629 12.0965
Pd 17.6652 12.9947 6.01795
Au 14.7712 9.74537 13.2142
Pd 15.2395 12.2015 14.585
Au 17.2321 10.2458 14.4714
Pd 16.868 14.0945 13.4175
Au 14.9525 9.87905 16.0574
Pd 15.3408 12.3346 17.4079
Au 17.4401 10.3965 17.395
Pd 17.7004 12.6665 15.8143
Au 14.926 9.96375 18.8455
Pd 15.2306 12.5095 20.2449
Au 17.1253 10.5865 20.1977
Pd 17.6067 13.1012 18.6876
Au 14.8313 10.1232 21.7677
Pd 17.4221 13.3241 25.404
Au 16.3664 9.44588 24.0899
Pd 16.7806 11.7549 22.7461
Pd 18.2906 19.5499 3.63088
Au 19.2485 17.0299 2.94804
Au 18.2426 17.5309 5.36803
Pd 17.1398 18.0009 7.87934
Au 18.096 15.4287 7.21122
Pd 18.9103 20.1945 8.28291
Au 16.9254 15.9085 9.74233
Pd 15.7824 16.3933 12.3039
Au 17.341 16.5787 14.657
Pd 17.592 18.5169 12.654
Au 15.6913 14.6501 15.9303
Pd 16.2926 17.3314 17.2155
Au 18.2075 15.1354 16.8099
Pd 17.9124 19.1697 15.293
Au 15.7637 14.9979 18.7997
Pd 16.4521 16.5401 21.4734
Au 17.2227 14.0223 21.1968
Pd 18.2242 16.0792 19.4332
Au 17.9924 15.4888 23.5632
Pd 17.1544 17.9795 23.9418
Au 18.1657 17.9868 26.4025
Pd 21.746 13.2447 22.6022
Pd 14.7074 22.3975 4.57058
Au 17.3453 22.0425 4.33804
Au 17.2529 20.0689 6.068
Pd 16.1567 20.5303 8.5513
Au 17.8028 20.6511 10.8297
Pd 17.923 22.6391 8.98583
Au 16.0232 18.4501 10.3724
Pd 14.9374 18.9273 12.8448
Au 16.6655 20.268 17.4948
Pd 16.8836 20.9806 13.3902
Au 14.6893 17.1085 14.9015
Pd 12.4115 21.624 14.9722
Au 15.3772 18.9032 21.8771
Pd 17.2865 24.0882 14.1077
Au 14.7759 20.2297 19.4839
Pd 15.852 22.6986 19.0528
Au 20.75 15.4118 23.7088
Pd 12.1895 23.8764 13.4172
Au 17.1774 20.5126 26.5661
Pd 19.8635 17.7413 24.3619
Au 19.189 15.4404 25.945
Pd 16.0068 22.754 25.4925
Pd 17.3162 25.1963 9.42395
Au 20.332 23.7899 8.45096
Au 18.0025 24.5465 7.01491
Pd 16.6425 23.2445 11.5194
Au 15.1072 21.0111 11.0843
Pd 12.5298 25.8123 11.515
Au 12.8182 20.5311 12.5875
Pd 6.64728 23.626 10.2994
Au 10.6814 25.9426 9.45866
Pd 12.9199 24.6637 8.96324
Au 10.5227 21.8136 12.6956
Pd 12.9942 26.3936 14.1033
Au 8.3443 23.4427 12.581
Pd 19.9014 26.2032 12.4642
Au 10.118 25.5623 13.1486
Pd 11.2695 25.4804 18.3744
Au 13.4706 26.3211 16.8894
Pd 13.1582 26.3558 20.0229
Au 17.5972 27.5414 20.0168
Pd 15.2245 27.3237 21.471
Au 18.7026 22.6766 25.7007
Pd 14.7712 24.6821 12.9269
Pd 17.573 4.9675 9.30533
Pd 18.258 3.60163 11.6126
Pd 20.0028 5.47265 10.4513
Pd 18.4617 3.59955 14.3727
Pd 20.6885 4.06966 12.7181
Pd 18.5997 3.67155 17.1352
Pd 20.9224 4.04013 15.4636
Pd 18.6949 3.82134 19.8347
Pd 21.0864 4.13012 18.1832
Pd 18.7473 5.04557 22.164
Pd 21.0379 5.33553 20.5462
Pd 17.1966 8.76531 8.30186
Au 16.7967 6.38442 7.03659
Au 18.015 7.34749 10.5802
Pd 18.4532 9.73654 11.9706
Au 20.4807 7.84436 11.7515
Pd 19.6929 9.27392 9.49406
Au 18.75 5.90964 12.8986
Pd 19.21 8.29185 14.2653
Au 21.2069 6.35889 14.0216
Pd 20.9326 10.2304 13.1859
Au 18.9661 5.94628 15.7372
Pd 19.4677 8.36659 17.1213
Au 21.4811 6.37578 16.8508
Pd 21.6975 8.7102 15.4025
Au 19.1811 6.05217 18.5368
Pd 19.5062 9.58155 19.5734
Au 21.4331 7.65986 19.2572
Pd 21.6865 10.0118 17.8091
Au 19.1749 7.32975 20.9599
Pd 18.3319 7.38246 23.622
Au 21.0078 6.69325 22.8552
Pd 21.3144 9.06968 21.6068
Pd 18.9527 12.506 3.70451
Au 18.8484 10.7127 7.18194
Au 17.6366 11.1614 9.62582
Pd 18.0359 13.5888 10.9301
Au 20.1032 11.7021 10.889
Pd 19.2227 13.1546 8.52209
Au 18.9029 12.1827 13.3327
Pd 19.4007 14.7417 14.0885
Au 21.5588 12.8909 13.468
Pd 20.6373 14.3231 11.4572
Au 19.6993 10.663 15.6335
Pd 20.4005 13.3035 15.9941
Au 22.3955 11.3753 15.5073
Pd 22.9141 14.2316 15.5926
Au 19.7589 11.8096 18.1252
Pd 19.1837 12.1052 20.8862
Au 21.6236 11.496 20.2318
Pd 22.3824 12.783 17.872
Au 18.7249 9.79496 22.4209
Pd 18.6356 10.871 24.9248
Au 20.3864 8.65417 24.5103
Pd 20.9152 10.9853 23.3607
Pd 21.3632 21.3049 7.74054
Au 21.8633 14.9565 4.27277
Au 19.244 14.9571 4.66657
Pd 18.7584 18.1885 10.1667
Au 19.6742 15.6969 9.39698
Pd 19.8701 17.7691 7.56881
Au 18.4752 16.0476 11.9586
Pd 19.7958 17.4316 13.8862
Au 21.957 15.6822 13.5064
Pd 20.9872 17.137 11.3458
Au 20.7404 16.1031 16.1504
Pd 17.1197 18.5883 19.6231
Au 19.0703 17.2846 21.8041
Pd 20.8409 19.1111 15.5343
Au 20.2327 14.4953 18.4964
Pd 19.8259 14.7083 21.2626
Au 22.3259 14.1904 20.1855
Pd 21.1068 16.6773 19.992
Au 19.0678 13.0357 23.3657
Pd 23.136 14.5137 24.6158
Au 21.2288 10.6131 25.95
Pd 21.5354 18.3839 22.1028
Pd 19.0402 22.1993 6.48715
Au 22.7389 22.7284 9.67809
Au 21.2091 19.2284 9.52904
Pd 18.0545 22.7431 17.6296
Au 19.9984 19.7829 12.4339
Pd 20.2661 21.701 10.2363
Au 15.0867 19.9943 15.2235
Pd 16.147 22.4052 15.7653
Au 22.3039 18.4746 13.2965
Pd 18.7254 21.7433 15.1889
Au 19.4628 20.3953 17.4302
Pd 18.102 21.2135 19.8275
Au 19.8269 19.0617 19.8307
Pd 23.625 19.8347 15.14
Au 22.5432 19.8788 19.9126
Pd 13.7917 24.0265 15.5473
Au 20.3157 20.8152 21.9506
Pd 17.953 19.6949 22.0476
Au 20.7554 13.153 25.3886
Pd 21.6299 19.7301 24.4112
Au 22.9617 20.9058 22.514
Pd 18.9707 20.1853 24.597
Pd 19.0385 22.314 12.6491
Au 21.6446 25.3787 17.0468
Au 24.0615 23.9972 11.7332
Pd 18.0642 23.6478 20.9697
Au 19.2416 24.2292 10.9035
Pd 21.6037 23.0807 12.2565
Au 14.8703 27.2171 12.4273
Pd 15.2287 23.0446 9.22047
Au 19.9832 24.1619 18.8669
Pd 15.9213 24.7125 17.0079
Au 18.087 26.7058 14.4047
Pd 14.9446 25.4483 10.4069
Au 26.5134 19.9436 16.8962
Pd 22.9466 23.2737 17.9652
Au 20.6208 26.6908 15.0741
Pd 15.5411 26.2741 14.9274
Au 15.8001 23.8298 23.0074
Pd 18.7792 24.9725 16.39
Au 17.4137 26.0236 22.2936
Pd 15.9806 21.5707 21.5474
Au 20.8223 22.2999 24.0771
Pd 19.6901 26.8006 18.2362
Pd 19.2463 6.91379 8.18324
Pd 22.4541 5.96651 11.5754
Pd 20.9231 8.88018 7.10453
Pd 23.1289 4.51268 13.8007
Pd 24.8805 6.4705 12.725
Pd 23.4026 4.51846 16.5387
Pd 26.8739 11.8447 17.0723
Pd 23.3292 5.79979 18.9112
Pd 25.5327 4.96527 14.8608
Pd 23.2336 7.22843 21.298
Pd 25.367 7.67244 19.4631
Pd 18.4387 8.36038 5.96256
Au 20.1257 10.3101 4.85766
Au 21.7249 7.4082 9.31934
Pd 22.1567 9.8184 10.7463
Au 24.1544 7.97121 10.5362
Pd 23.3257 9.47527 8.37995
Au 22.9726 8.3412 12.9403
Pd 23.6214 11.0179 12.9739
Au 24.8226 10.672 10.4924
Pd 23.9201 12.1638 8.39709
Au 23.6923 6.79554 15.1295
Pd 26.8348 10.4253 14.7652
Au 25.5082 6.26287 17.1564
Pd 26.1078 11.9885 12.6097
Au 23.6346 8.15009 17.4752
Pd 24.3753 9.49159 15.1152
Au 25.6332 9.15943 12.6292
Pd 24.9125 13.7201 17.4901
Au 23.516 9.55433 19.8453
Pd 22.9588 9.0404 23.7528
Au 25.2605 9.04247 21.8311
Pd 26.2565 7.60921 14.8149
Pd 20.408 12.7477 6.16625
Au 21.7055 12.3459 3.97425
Au 21.3162 11.2787 8.46646
Pd 21.8499 13.9309 8.83856
Au 23.0327 13.5877 6.27069
Pd 20.9648 17.3936 5.02918
Au 22.7703 12.4891 10.89
Pd 24.0835 13.8248 13.0148
Au 22.5324 10.9073 6.12701
Pd 25.2402 13.4996 10.5069
Au 24.9416 12.3141 15.1173
Pd 22.8131 15.6542 17.9766
Au 27.3734 13.2765 14.6713
Pd 25.3734 15.1494 15.1082
Au 24.3826 10.897 17.4779
Pd 24.3362 12.3035 19.8074
Au 26.3081 8.98838 17.1295
Pd 26.8399 13.2026 19.4143
Au 23.5052 11.0791 22.1455
Pd 23.1734 11.8775 24.6821
Au 25.3253 10.5126 24.0193
Pd 26.1811 10.3666 19.4754
Pd 22.3209 18.8218 7.01535
Au 20.0311 19.8197 5.74115
Au 20.8413 15.3273 6.81028
Pd 22.1708 16.7114 8.77071
Au 24.3493 14.9558 8.36162
Pd 23.2464 16.3464 6.26789
Au 23.1648 15.2864 10.9044
Pd 26.5218 14.8324 12.579
Au 27.7828 16.1481 14.623
Pd 25.6196 16.2921 10.4391
Au 23.1953 17.0895 15.6135
Pd 25.329 16.4459 17.4996
Au 27.4121 14.644 16.9883
Pd 25.6666 17.9762 15.109
Au 24.8846 15.1111 19.8792
Pd 22.898 16.0488 22.0937
Au 26.793 14.5554 21.8185
Pd 27.3282 15.9408 19.3373
Au 24.2888 13.7398 22.1541
Pd 22.5406 17.1649 24.5656
Au 26.2268 11.7962 21.8124
Pd 25.6369 13.1764 24.2048
Pd 23.86 21.9432 13.4649
Au 23.7036 20.2122 8.92123
Au 22.5112 20.6089 11.5288
Pd 21.3459 21.3969 14.3467
Au 24.6157 17.7049 8.23468
Pd 24.9928 21.5053 10.9129
Au 23.5093 18.0682 10.73
Pd 24.8196 19.3866 12.716
Au 26.9348 17.6361 12.4803
Pd 25.9424 19.023 10.2478
Au 27.2565 20.3538 12.1792
Pd 21.6363 18.1685 17.8783
Au 27.7217 17.4727 16.9596
Pd 24.4663 16.6363 12.9839
Au 18.9493 17.7565 17.4222
Pd 20.7924 21.7585 19.3314
Au 25.9679 17.1481 21.4352
Pd 23.7501 17.5418 19.9474
Au 25.0105 19.9041 20.9447
Pd 24.0749 18.417 22.8794
Au 25.1367 15.9273 23.6417
Pd 26.3074 18.4566 19.1121
Pd 17.1593 25.8554 12.0615
Au 17.3234 27.1608 16.9624
Au 22.3547 25.5265 13.2248
Pd 24.1677 18.8462 17.5627
Au 21.742 25.1113 10.5694
Pd 24.5511 22.0857 16.1681
Au 20.104 24.1794 14.239
Pd 22.2899 20.8031 17.22
Au 26.2462 22.8076 12.7913
Pd 22.6945 23.7138 15.1123
Au 28.0313 18.9294 14.585
Pd 26.1548 20.8243 14.5002
Au 24.7539 21.2054 18.6519
Pd 20.6562 22.8362 16.6189
Au 19.7152 25.9451 20.8589
Pd 17.5746 25.2059 18.9252
Au 20.8927 23.4313 21.4934
Pd 23.2035 22.5006 20.4493
Au 19.4806 24.5911 23.3818
Pd 18.0966 22.272 23.1821
Au 17.3939 24.917 24.9025
Pd 22.1715 25.1012 19.7776
