665
Atoms. Timestep: 20308
Pd 7.12872 7.3118 7.78795
Pd 5.53077 7.40001 12.1825
Pd 3.80193 7.53893 16.2922
Pd 3.91568 7.42069 18.8791
Pd 6.53238 8.06114 22.4524
Au 7.58497 8.61693 5.27189
Au 5.81562 8.63304 9.70476
Pd 6.35883 9.87256 7.27882
Au 4.22472 8.81912 14.0313
Pd 4.84049 10.058 11.7215
Au 3.6694 9.85133 17.7568
Pd 4.21173 11.1737 15.4305
Au 4.43996 8.87939 21.0145
Pd 4.41576 11.3545 19.9375
Au 7.13572 9.50329 24.7364
Pd 5.15978 10.3901 23.191
Au 6.98397 11.1659 4.94753
Au 5.34427 11.3467 9.36155
Pd 5.96716 12.5839 7.02835
Au 4.72118 12.4845 13.0649
Pd 5.32748 13.7926 10.7116
Au 3.529 12.6786 17.6857
Pd 4.03676 13.9867 15.3496
Au 5.16702 12.8885 22.1509
Pd 4.27551 14.1826 19.8605
Au 5.94267 11.8718 25.3266
Pd 6.14252 14.3935 24.2724
Au 8.43373 15.6306 4.36355
Au 5.88975 15.1605 8.35433
Pd 6.65709 16.6679 6.08943
Au 4.51781 15.2848 12.9801
Pd 5.09759 16.6022 10.6463
Au 3.40646 15.4864 17.5916
Pd 3.90384 16.7966 15.2509
Au 5.07471 15.6818 22.0614
Pd 4.16652 16.9802 19.7574
Au 7.23126 15.9098 26.3695
Pd 6.02172 17.1456 24.217
Au 7.54022 18.1156 3.89252
Au 5.60445 17.9513 8.31854
Pd 6.25454 19.3416 6.06705
Au 4.3473 18.0941 12.8787
Pd 4.89625 19.4119 10.5415
Au 3.33046 18.3154 17.4782
Pd 3.80722 19.5986 15.1266
Au 4.96913 18.4529 21.9499
Pd 4.10911 19.7748 19.6216
Au 6.91989 18.6395 26.2722
Pd 5.91561 19.917 24.0381
Au 8.18432 22.9277 4.37064
Au 5.35229 20.7459 8.20446
Pd 6.90092 20.6973 3.9178
Au 4.18309 20.8628 12.7557
Pd 4.73802 22.1231 10.4056
Au 3.33821 21.1015 17.3176
Pd 3.89214 22.3327 14.9813
Au 4.96257 21.2198 21.7548
Pd 4.18234 22.4877 19.4192
Au 7.88054 21.0901 25.4583
Pd 7.01487 22.3392 23.2226
Pd 8.97832 6.50437 5.96195
Pd 7.47609 6.60807 10.365
Pd 9.46325 6.04323 8.46487
Pd 5.91017 6.75641 14.7611
Pd 7.88007 6.1422 12.9857
Pd 6.10549 6.588 17.4618
Pd 8.32887 5.85704 15.8771
Pd 6.07606 6.65055 20.2046
Pd 8.35671 5.84511 18.8259
Pd 8.59495 7.21445 23.9075
Pd 8.28758 5.91295 21.5965
Pd 9.62865 10.313 4.84453
Au 10.9933 8.04602 5.36953
Au 9.16964 8.84351 7.36102
Pd 7.94861 10.2688 9.41166
Au 9.58714 8.2058 9.99293
Pd 11.2114 10.46 7.02085
Au 7.59518 8.91024 11.8705
Pd 6.42456 10.3661 13.862
Au 8.09698 8.27495 14.5751
Pd 9.77332 10.5005 11.6
Au 5.90569 9.06833 16.1829
Pd 5.9468 11.4269 17.6186
Au 8.3183 8.12967 17.3592
Pd 8.19536 10.6104 16.0473
Au 6.03495 9.00387 18.8759
Pd 6.71404 10.4628 21.0688
Au 8.26798 8.20467 20.2734
Pd 8.37014 10.5348 18.8196
Au 8.77494 9.59709 22.6365
Pd 9.33625 11.0032 25.0122
Au 10.7021 8.68481 24.4252
Pd 10.9451 11.1218 22.8394
Pd 8.97452 12.9457 4.58984
Au 11.6762 12.1138 4.43864
Au 8.52812 11.5531 7.00308
Pd 7.52163 13.0172 9.16065
Au 10.1914 11.8993 9.14458
Pd 10.6236 13.2706 6.67
Au 6.98224 11.6862 11.5207
Pd 7.00359 14.0581 12.9129
Au 8.70499 11.9251 13.6734
Pd 9.25528 13.2656 11.3178
Au 6.46725 12.722 15.2594
Pd 5.79113 14.206 17.5295
Au 8.30627 12.9386 17.5101
Pd 8.78592 14.2612 15.1459
Au 6.70114 12.8945 19.8252
Pd 7.57621 14.4042 21.9899
Au 9.01511 12.022 21.0753
Pd 9.10713 14.4179 19.6932
Au 7.45999 11.9717 23.2995
Pd 8.17912 13.3863 25.6497
Au 11.3986 12.6906 25.4529
Pd 9.73726 13.4881 23.4667
Pd 10.3606 17.5126 4.08176
Au 11.0071 14.764 4.20325
Au 7.95364 14.3282 6.71248
Pd 8.15245 16.8362 8.29425
Au 9.71315 14.6532 8.91718
Pd 10.0922 16.0289 6.50366
Au 7.55139 15.403 10.5678
Pd 6.80088 16.8596 12.8288
Au 9.29501 15.6322 12.799
Pd 9.85697 17.051 10.531
Au 6.29892 15.524 15.1629
Pd 5.69035 17.0109 17.4222
Au 8.15596 15.7368 17.4082
Pd 8.65343 17.0841 15.062
Au 6.57698 15.6915 19.7421
Pd 7.43712 17.1797 21.9167
Au 10.0167 15.929 21.9144
Pd 8.96355 17.2084 19.6169
Au 8.54645 15.9107 24.1646
Pd 9.36111 17.5769 26.43
Au 10.2439 15.0494 26.0744
Pd 10.9018 17.6308 24.2925
Pd 9.44578 20.0806 3.97605
Au 12.1327 19.7474 4.13625
Au 8.86315 18.403 6.1141
Pd 7.82834 19.6574 8.32279
Au 10.4075 18.6326 8.41451
Pd 10.8336 20.3927 6.41123
Au 7.3338 18.2222 10.5287
Pd 6.63501 19.7038 12.6977
Au 9.12749 18.469 12.7595
Pd 9.56887 20.0105 10.6132
Au 6.19379 18.3351 15.046
Pd 5.65482 19.8419 17.2766
Au 8.07827 18.5846 17.2767
Pd 8.55954 19.9564 14.9185
Au 6.48328 18.4771 19.6193
Pd 7.34785 19.9592 21.7611
Au 9.86229 18.7002 21.829
Pd 8.87658 20.0267 19.4368
Au 8.3531 18.6998 24.0979
Pd 10.296 20.037 25.609
Au 12.8142 19.2046 25.7581
Pd 11.8398 20.0644 23.3388
Pd 5.96062 22.1148 5.94504
Au 10.7829 22.3224 4.51798
Au 8.33452 21.1729 6.21576
Pd 7.209 22.7081 8.22104
Au 9.67346 21.7948 8.58534
Pd 9.56658 23.5991 6.58838
Au 7.10361 21.1411 10.4267
Pd 6.19257 22.611 12.5911
Au 8.65299 21.6236 12.7034
Pd 8.54847 23.3909 10.5527
Au 6.13058 21.1332 14.9024
Pd 5.57467 22.6715 17.0989
Au 8.01564 21.596 17.0332
Pd 7.70507 23.2555 14.765
Au 6.47119 21.2864 19.4097
Pd 6.11621 23.5016 20.9713
Au 8.48741 22.3672 20.9299
Pd 7.55546 23.7231 18.7313
Au 9.39334 21.136 23.2015
Pd 10.1879 22.7252 25.1039
Au 12.6923 21.9113 25.2385
Pd 9.38388 23.9138 22.8744
Pd 11.4698 5.58032 6.50298
Pd 9.88846 5.58783 11.1062
Pd 11.9072 5.17647 9.10854
Pd 10.3081 5.33004 13.9221
Pd 12.2995 4.82221 11.9831
Pd 10.6438 5.24599 17.468
Pd 12.5525 5.0416 15.5499
Pd 10.6241 5.28195 20.3639
Pd 12.986 4.90658 19.1138
Pd 10.4591 5.30337 23.1425
Pd 12.8613 5.00129 21.9745
Pd 12.9587 9.80625 5.06849
Au 13.5795 7.23991 6.03734
Au 11.6398 7.7071 7.99711
Pd 11.8536 9.83992 9.66343
Au 12.046 7.26434 10.7163
Pd 13.7567 9.44215 7.65086
Au 10.0418 7.75359 12.689
Pd 10.3463 9.86169 14.3532
Au 12.4843 6.9417 13.6458
Pd 12.2468 9.44283 12.3128
Au 10.568 7.33808 15.7088
Pd 10.5919 9.71904 17.2092
Au 12.7965 6.99034 17.3782
Pd 12.7176 9.06382 15.4644
Au 10.5462 7.51586 18.857
Pd 10.5763 9.79409 20.4216
Au 12.7464 7.17251 20.4931
Pd 12.7644 9.33945 18.844
Au 10.4742 7.53716 21.9122
Pd 12.6474 10.4096 24.8111
Au 12.5793 6.80575 23.8841
Pd 12.7015 9.08407 22.4168
Pd 13.6808 14.0438 4.13849
Au 14.8411 11.6553 4.56765
Au 13.1837 12.157 6.67274
Pd 12.3365 13.6245 8.83067
Au 13.9711 11.5417 9.36231
Pd 15.0968 13.9406 6.42498
Au 11.9775 12.0928 11.322
Pd 10.9522 13.5448 13.4661
Au 12.5638 11.4976 13.9853
Pd 14.0946 13.7363 11.0622
Au 10.5009 12.1592 15.8686
Pd 10.6938 14.3944 17.4275
Au 12.8596 11.3925 17.0768
Pd 12.8422 13.701 15.5956
Au 10.7177 12.013 18.8112
Pd 11.2558 13.5146 21.166
Au 12.8568 11.2976 20.7553
Pd 13.0015 13.4758 18.9946
Au 12.9802 12.7777 23.1893
Pd 13.3376 14.492 25.9528
Au 14.5208 12.1544 25.334
Pd 14.9407 14.4832 23.6939
Pd 12.9442 16.7477 4.09663
Au 15.5196 16.0848 3.90765
Au 12.6464 15.1023 6.37492
Pd 11.8333 16.3789 8.72531
Au 14.3768 15.434 8.58392
Pd 14.5942 17.0622 6.35773
Au 11.4961 14.8993 11.1077
Pd 11.593 17.1964 12.8171
Au 13.2556 15.127 13.2628
Pd 13.6201 16.6491 10.9147
Au 11.0842 15.7542 15.0881
Pd 10.5225 17.2219 17.3249
Au 13.0675 15.743 17.4148
Pd 13.3286 17.2511 15.1374
Au 11.4951 15.8995 19.6427
Pd 12.4174 17.5289 22.0926
Au 13.4196 15.0929 21.4597
Pd 13.811 17.4273 19.7318
Au 11.8555 15.1616 23.8292
Pd 12.1583 16.8118 26.5527
Au 15.7329 15.6942 26.2036
Pd 13.8569 16.8664 24.4903
Pd 13.467 22.1876 4.738
Au 14.6206 18.9239 4.40386
Au 12.021 17.9574 6.276
Pd 12.1399 20.7344 8.96967
Au 13.6319 18.4096 8.61081
Pd 13.5699 20.2695 6.57181
Au 12.0498 18.867 10.8436
Pd 11.088 20.4615 13.003
Au 13.4868 19.2439 13.3719
Pd 13.4491 21.2036 11.5019
Au 10.9897 18.6628 15.0215
Pd 10.4081 20.2139 17.1446
Au 12.8289 18.7301 17.3002
Pd 12.6393 20.8882 15.4931
Au 11.3247 18.7099 19.5402
Pd 10.9374 21.1201 20.8814
Au 13.3688 19.8894 21.0212
Pd 12.5687 21.1228 18.5752
Au 14.3653 19.2731 23.4254
Pd 15.1099 20.6645 25.6552
Au 15.1014 18.1688 26.6802
Pd 14.458 21.9526 23.0661
Pd 12.0817 24.5051 5.30578
Au 14.8167 24.4613 5.33077
Au 12.0831 22.6548 7.07939
Pd 10.8675 24.2085 8.95971
Au 13.3309 23.1177 9.53761
Pd 13.3856 24.9675 7.59131
Au 10.9797 22.3594 10.9999
Pd 9.84003 24.0045 12.9069
Au 12.3032 22.9206 13.438
Pd 12.102 24.771 11.3332
Au 10.1474 22.1814 15.037
Pd 9.28336 24.1666 16.7179
Au 11.9221 23.104 16.8549
Pd 11.229 24.8938 15.0182
Au 10.0361 22.5169 18.6785
Pd 9.70552 24.6524 20.3266
Au 12.1917 23.4524 20.1508
Pd 11.2672 25.2352 18.2739
Au 11.7908 22.7627 22.8138
Pd 13.4791 24.4026 23.951
Au 14.9723 23.2579 25.699
Pd 11.8013 25.2786 21.9808
Pd 14.0338 4.89839 7.30598
Pd 14.2243 4.45979 10.0198
Pd 16.5137 5.04202 8.72406
Pd 14.4999 4.75122 13.662
Pd 16.36 4.62213 11.5595
Pd 14.8587 4.9254 17.1941
Pd 16.7288 4.85577 15.2558
Pd 15.2579 4.95725 20.8577
Pd 17.1006 5.04634 18.9101
Pd 14.87 5.23756 23.8738
Pd 17.3037 5.37337 22.6514
Pd 15.5533 9.12897 5.56094
Au 16.2152 6.62958 6.59613
Au 14.2969 6.93899 8.80872
Pd 14.5007 9.03662 10.4704
Au 16.7173 7.11789 10.4092
Pd 16.3638 8.81446 8.24122
Au 14.3908 6.54523 11.6682
Pd 14.5612 8.78137 13.397
Au 16.509 6.70662 13.287
Pd 16.9146 9.23704 12.1384
Au 14.6631 6.86069 15.3561
Pd 14.8626 9.00131 17.1605
Au 16.8556 6.94261 17.0112
Pd 16.6905 8.88844 15.0532
Au 14.9947 6.92873 19.0179
Pd 14.8887 9.22027 20.6191
Au 17.1134 7.14443 20.6915
Pd 16.9866 9.12779 18.819
Au 14.8674 7.16998 22.2804
Pd 14.5932 8.60022 24.5033
Au 16.8068 7.13195 24.5142
Pd 16.9224 9.04623 22.6503
Pd 16.6576 13.669 4.28979
Au 17.4904 11.1594 5.04586
Au 15.7711 11.3056 7.17285
Pd 16.0049 13.3666 9.00451
Au 16.6226 10.9174 9.98456
Pd 17.7328 13.281 6.85276
Au 14.6927 11.1802 12.0951
Pd 15.0473 13.2406 13.7575
Au 17.1323 11.3353 13.8337
Pd 16.8698 13.0565 11.6948
Au 14.8204 10.97 15.2264
Pd 15.0338 13.2973 17.1169
Au 16.8862 11.116 16.9138
Pd 17.2359 13.4382 15.5174
Au 14.9482 11.2584 18.8822
Pd 15.0066 12.9513 21.0875
Au 17.0065 11.0768 20.8097
Pd 17.0602 13.175 19.0175
Au 14.8025 10.7883 22.8904
Pd 16.8026 13.3284 25.6668
Au 16.6284 10.4392 24.966
Pd 16.86 12.5599 23.1291
Pd 17.1348 18.1151 4.67395
Au 18.4124 15.7135 3.95505
Au 16.9142 15.8224 6.18912
Pd 16.1357 17.4349 8.91812
Au 17.8872 15.4084 8.70725
Pd 18.2634 17.9031 7.14897
Au 16.0701 15.4698 10.8474
Pd 15.185 17.1174 13.1737
Au 17.1098 15.2419 13.4077
Pd 17.3102 17.6324 11.5698
Au 15.1655 15.35 15.3968
Pd 15.2354 17.294 17.3142
Au 17.1557 15.4331 17.3608
Pd 17.1095 17.3253 15.2466
Au 15.1649 15.1207 19.2833
Pd 15.3074 16.9236 22.0446
Au 17.0084 14.8042 21.3875
Pd 16.7108 17.3549 19.559
Au 17.321 15.5187 24.0145
Pd 18.132 17.0798 26.2335
Au 19.0264 14.5934 26.2236
Pd 19.8399 16.3894 24.0865
Pd 15.9732 21.2119 5.10741
Au 18.524 20.2407 5.54958
Au 16.0412 19.334 6.95905
Pd 14.9491 20.8265 9.12464
Au 17.377 19.6826 9.67719
Pd 17.3733 21.5813 7.74253
Au 15.0388 19.0058 11.1122
Pd 14.8496 21.5564 14.0044
Au 16.6533 19.5183 13.626
Pd 16.4368 21.4715 11.7515
Au 15.0585 19.4621 15.7493
Pd 14.9064 21.8128 17.1264
Au 17.34 19.2131 17.3107
Pd 17.3466 21.5867 15.961
Au 15.0608 19.6395 18.7382
Pd 16.8267 22.2862 21.5966
Au 16.1654 19.4932 21.2461
Pd 17.3342 21.2647 19.1059
Au 16.4364 17.9845 24.3527
Pd 17.5019 19.662 26.2717
Au 20.5428 18.3358 26.1823
Pd 16.8863 20.6286 23.681
Pd 16.223 25.0258 7.67034
Au 17.316 23.4108 5.80477
Au 14.8931 22.6663 7.17978
Pd 14.5303 25.4542 9.95917
Au 16.1736 23.2625 9.73935
Pd 17.2958 25.7924 10.059
Au 14.5702 23.5988 12.0164
Pd 13.3446 25.5765 13.5312
Au 16.4643 23.6856 14.0147
Pd 15.73 25.9031 12.2808
Au 14.0438 23.765 15.3568
Pd 13.1701 25.9948 16.5451
Au 16.4487 24.1386 16.7724
Pd 15.4654 26.0779 15.0867
Au 14.0169 24.1047 18.2618
Pd 13.3201 26.0604 19.8288
Au 16.4675 23.9282 19.4676
Pd 15.4677 26.3435 17.9555
Au 14.6535 22.0074 20.0729
Pd 14.4768 24.2486 21.5162
Au 17.4265 22.3536 25.5891
Pd 15.9043 26.2391 20.6174
Pd 19.0951 4.50891 7.86269
Pd 18.7566 5.18878 10.4098
Pd 21.2829 4.63235 9.48417
Pd 18.5033 4.79467 13.1683
Pd 20.952 5.36744 12.086
Pd 18.91 5.02319 16.9105
Pd 20.6563 4.98242 14.8017
Pd 19.2057 5.32571 20.721
Pd 21.01 5.2455 18.6492
Pd 19.2448 6.0077 24.5267
Pd 21.1863 5.66853 22.5272
Pd 18.1827 8.71758 6.11904
Au 18.8426 6.16675 5.80133
Au 18.4652 7.0031 8.26895
Pd 18.6921 9.10227 9.98353
Au 20.7077 7.15596 9.92579
Pd 20.4262 8.9381 7.82013
Au 18.9712 7.30286 12.1166
Pd 19.1662 9.43271 13.8826
Au 21.1715 7.49548 13.8436
Pd 20.9165 9.32583 11.6931
Au 18.6559 6.87145 14.9181
Pd 18.8102 9.06071 16.7222
Au 20.7764 7.06554 16.5984
Pd 21.343 9.65949 15.6481
Au 18.9982 7.12764 18.7095
Pd 19.1039 9.30718 20.5661
Au 21.1078 7.34293 20.4674
Pd 20.9285 9.22745 18.4366
Au 19.1926 7.4859 22.4782
Pd 18.9098 8.88568 24.749
Au 21.3606 7.6771 24.2917
Pd 21.3001 9.44132 22.3252
Pd 19.3516 13.2446 4.72933
Au 20.1255 10.7335 5.6269
Au 18.4274 10.843 7.81636
Pd 18.6927 13.0019 9.61144
Au 20.6581 11.118 9.57687
Pd 20.3882 12.9239 7.41602
Au 18.9199 11.2205 11.7207
Pd 19.1202 13.3455 13.4396
Au 21.1361 11.4375 13.4506
Pd 20.9181 13.2904 11.3311
Au 19.3181 11.5568 15.6409
Pd 19.2705 13.639 17.4336
Au 21.4556 11.794 17.4998
Pd 21.266 13.4812 15.2977
Au 18.9661 11.2165 18.6487
Pd 19.05 12.9705 20.9638
Au 21.1514 11.3296 20.3536
Pd 21.1764 13.8805 19.3395
Au 19.0078 10.8604 22.8778
Pd 18.9414 11.7402 25.4331
Au 21.1909 10.4004 24.8788
Pd 21.3055 12.3678 22.9266
Pd 19.8639 17.7402 4.96077
Au 21.1807 15.2732 4.36124
Au 19.5919 15.4066 6.48987
Pd 19.1785 17.633 9.65374
Au 20.6643 15.1768 9.21729
Pd 20.9145 17.5553 7.53133
Au 18.9264 15.2614 11.3522
Pd 19.2047 17.2454 13.3568
Au 21.152 15.3003 13.263
Pd 21.173 17.0985 11.2671
Au 19.1915 15.371 15.3067
Pd 19.2269 17.2704 17.2182
Au 21.349 15.4447 17.1587
Pd 21.2512 17.3337 15.229
Au 18.8378 15.5664 19.471
Pd 18.0587 17.326 21.926
Au 20.4327 15.3187 21.6026
Pd 21.1765 17.0216 19.33
Au 19.2429 13.7487 23.6458
Pd 21.4223 15.8282 26.1536
Au 21.238 13.1905 25.639
Pd 22.0579 17.834 23.8852
Pd 19.8178 22.4208 6.55696
Au 21.3135 19.8415 5.87566
Au 19.6414 20.0343 8.03287
Pd 18.8375 21.7941 10.4177
Au 20.9046 19.6591 10.4368
Pd 21.1117 22.0495 8.96804
Au 18.8459 19.7271 12.139
Pd 18.6671 21.9181 13.6547
Au 21.2561 19.1048 13.1987
Pd 21.0301 21.6797 12.2607
Au 19.0174 19.3335 15.1683
Pd 19.6648 21.0269 17.6192
Au 21.357 18.9988 17.3911
Pd 21.0384 20.9551 15.1746
Au 18.9797 18.8133 19.4351
Pd 18.7366 20.2425 21.6641
Au 20.5674 18.1582 21.6918
Pd 21.1803 20.2985 19.9454
Au 18.9677 18.8879 24.0675
Pd 19.7412 20.9333 25.6214
Au 22.4254 20.0434 25.5149
Pd 20.9728 20.4401 23.2557
Pd 18.8672 25.3444 6.66493
Au 21.2083 24.4476 7.71874
Au 18.6178 23.7863 8.65168
Pd 19.6975 26.2234 11.7957
Au 20.5235 24.0033 10.645
Pd 19.738 26.176 9.10518
Au 18.0088 23.9831 11.8403
Pd 17.8508 26.0138 13.6893
Au 20.5629 24.0974 13.4383
Pd 20.1799 26.5258 14.5783
Au 18.8082 24.1082 15.4091
Pd 17.7659 26.501 16.3138
Au 21.1762 23.2884 16.4869
Pd 20.1395 25.7746 17.1663
Au 18.8288 23.5292 18.088
Pd 17.9797 26.0294 18.9187
Au 19.4348 22.5724 20.5734
Pd 22.4899 25.2518 18.106
Au 16.3624 23.9414 23.5856
Pd 18.9309 22.4547 23.3465
Au 21.3371 22.7585 24.5782
Pd 18.0171 24.7352 21.5092
Pd 21.045 6.29289 7.34989
Pd 23.4187 4.88331 11.1545
Pd 22.932 8.21927 6.93828
Pd 23.1489 5.61206 13.786
Pd 25.0251 7.51898 13.3441
Pd 22.7364 5.195 16.5
Pd 25.2242 5.92863 15.5772
Pd 23.0395 5.50257 20.3549
Pd 24.7657 5.4775 18.1818
Pd 23.2383 7.44642 22.1888
Pd 24.9805 7.39059 20.0197
Pd 20.7393 8.09293 5.33598
Au 22.6341 10.0733 4.97075
Au 23.2568 6.45947 8.9907
Pd 22.6389 9.15747 9.50475
Au 25.2919 6.74646 10.75
Pd 25.069 8.49561 8.68693
Au 22.855 7.38482 11.6405
Pd 23.084 9.48874 13.4346
Au 26.8733 9.48233 13.0055
Pd 24.7868 9.33837 11.2375
Au 23.3333 7.7259 15.5951
Pd 25.1611 9.69106 15.2261
Au 25.5175 7.98071 17.3968
Pd 24.9532 11.4158 13.0793
Au 22.8951 7.2783 18.3044
Pd 23.4959 9.8708 17.4438
Au 26.9837 7.87198 15.1471
Pd 25.5009 11.7251 17.0519
Au 23.1089 9.31555 20.1699
Pd 23.5484 9.40307 23.9742
Au 25.3313 9.29775 21.8454
Pd 25.5673 10.0757 19.2448
Pd 21.9785 12.7752 5.2109
Au 24.746 10.1374 6.5941
Au 22.3118 10.9376 7.42614
Pd 22.612 13.1417 9.13705
Au 24.6583 11.2251 9.05748
Pd 24.1439 12.7504 6.69303
Au 22.9114 11.3394 11.2398
Pd 23.137 13.3762 13.1409
Au 26.6321 11.2392 10.9668
Pd 24.9133 13.3139 10.9108
Au 23.2869 11.6164 15.2953
Pd 23.4849 13.6368 17.1073
Au 27.0845 11.4466 14.7874
Pd 25.3123 13.4588 14.9511
Au 23.6455 12.0169 19.2703
Pd 23.0142 13.839 21.2669
Au 25.7347 12.2835 21.071
Pd 25.638 13.8151 18.8565
Au 23.4993 11.2605 22.0442
Pd 23.388 12.0291 24.7331
Au 25.6611 11.2081 23.6011
Pd 24.7692 13.718 23.2709
Pd 22.5173 17.339 5.43555
Au 23.8051 14.8843 4.98023
Au 22.2977 14.9699 7.02301
Pd 22.9943 16.7874 8.9517
Au 24.7469 14.5687 8.44128
Pd 24.6181 16.7071 6.8635
Au 22.9992 15.1658 11.0964
Pd 25.152 15.2788 12.9131
Au 26.8942 13.1979 12.7625
Pd 25.3179 16.2663 10.3022
Au 23.3372 15.363 15.0405
Pd 23.4728 17.1879 17.0295
Au 25.5666 15.4378 16.7558
Pd 25.3186 17.3555 14.9056
Au 23.4795 15.4451 19.1035
Pd 22.9249 16.6661 21.4748
Au 25.3657 15.2488 21.1388
Pd 25.6259 17.01 18.9445
Au 22.1715 14.9159 23.6504
Pd 23.4769 17.4484 25.9899
Au 23.7685 14.6371 25.676
Pd 24.4765 16.3727 23.6791
Pd 22.6678 21.9064 6.87971
Au 24.0793 19.3765 6.31844
Au 22.5597 19.5527 8.3569
Pd 23.206 21.2695 10.4276
Au 25.1862 18.5613 8.76248
Pd 24.8124 21.1738 8.34967
Au 23.5271 18.5602 10.8782
Pd 23.5785 20.4161 12.9076
Au 25.7989 17.8544 12.2497
Pd 25.6475 20.2682 11.027
Au 23.296 19.2623 15.2565
Pd 22.9963 21.1574 17.3117
Au 25.3292 19.1939 17.0383
Pd 23.2516 17.2644 13.1701
Au 23.4527 18.6139 19.3054
Pd 23.81 21.235 19.9333
Au 25.3326 17.921 21.572
Pd 25.9642 19.6227 19.6018
Au 23.0641 19.4726 21.8846
Pd 23.6308 21.5764 23.712
Au 24.5696 19.0316 24.0891
Pd 25.4915 20.5837 22.029
Pd 22.254 25.8134 9.9899
Au 23.4191 23.625 8.95236
Au 22.9681 23.5293 11.7631
Pd 22.2762 25.9858 12.6594
Au 25.466 22.888 10.3614
Pd 25.2987 22.4089 12.8922
Au 22.8354 22.6892 14.3318
Pd 22.3445 25.3528 15.3231
Au 26.0207 19.7967 13.865
Pd 24.6306 25.3148 11.1232
Au 25.012 21.5107 15.4496
Pd 24.0243 23.6809 16.5447
Au 25.6305 21.7278 18.0074
Pd 24.4103 24.7477 13.7738
Au 21.7122 22.8728 19.0408
Pd 20.2537 25.0798 19.8376
Au 24.6851 23.0946 21.6851
Pd 24.3871 23.7186 19.1422
Au 21.9949 22.3389 21.7193
Pd 20.5167 24.4155 22.4785
Au 23.0752 24.256 23.3787
Pd 22.6851 24.813 20.8206
