665
Atoms. Timestep: 20400
Pd 8.04577 8.51098 8.06697
Pd 5.27863 8.65862 12.2103
Pd 3.32081 9.01043 16.5519
Pd 3.5336 8.38666 19.2121
Pd 6.7535 8.60012 22.6336
Au 8.83452 9.67969 5.69659
Au 5.93107 9.66209 9.70865
Pd 6.72271 10.7498 7.30063
Au 3.52359 9.94138 13.9994
Pd 4.11908 10.9938 11.4673
Au 3.30902 10.869 18.5017
Pd 3.39684 11.7843 15.9825
Au 4.53166 9.61377 21.474
Pd 4.53313 12.127 20.5328
Au 7.87326 9.80673 24.8705
Pd 5.69074 10.8706 23.719
Au 7.40169 11.7879 4.8405
Au 4.73459 11.9876 8.95614
Pd 5.37865 12.9456 6.49833
Au 3.73231 12.7994 13.4974
Pd 4.29515 13.7999 11.0415
Au 3.24348 13.5004 18.0672
Pd 3.57459 14.5958 15.6216
Au 5.70797 13.3667 22.7139
Pd 4.50675 14.7824 19.9649
Au 6.86043 12.076 25.8545
Pd 7.01378 14.559 24.8565
Au 8.68337 13.8591 3.4857
Au 4.78733 14.7424 8.55388
Pd 5.38405 15.6273 6.06788
Au 3.94841 15.6303 13.1578
Pd 4.44333 16.6048 10.6892
Au 3.38897 16.247 17.8261
Pd 3.78248 17.3839 15.382
Au 5.76103 15.9739 21.9314
Pd 4.68112 17.5296 19.8145
Au 8.35342 15.6179 26.9834
Pd 7.05744 17.1005 23.9093
Au 5.97559 13.8684 4.0507
Au 4.90653 17.4752 8.15637
Pd 6.6083 17.9879 6.04365
Au 4.15066 18.4386 12.8992
Pd 4.69 19.4036 10.4017
Au 3.59299 18.9976 17.6344
Pd 4.04534 20.1683 15.2208
Au 5.93684 18.743 21.9008
Pd 4.85197 20.2229 19.6802
Au 8.23157 18.0765 26.0188
Pd 7.27517 19.8922 23.9529
Au 9.82008 20.7528 3.94391
Au 6.01374 19.9206 8.05117
Pd 7.29768 16.1345 4.11252
Au 4.44845 21.2184 12.7778
Pd 5.76849 21.8821 10.5114
Au 3.8596 21.7117 17.496
Pd 4.54448 22.8748 15.0939
Au 6.04564 21.4119 21.7925
Pd 4.99597 22.8316 19.677
Au 9.50988 21.4029 23.79
Pd 8.294 22.7793 21.692
Pd 10.2258 7.52116 6.55411
Pd 7.27201 7.40979 10.4554
Pd 9.41372 6.27375 8.84392
Pd 5.26874 8.0182 14.7998
Pd 7.31849 7.04695 13.1261
Pd 5.46123 7.64727 17.5018
Pd 7.48184 6.7627 15.8581
Pd 5.7224 7.4335 20.3299
Pd 7.67005 6.54019 18.6457
Pd 9.00007 7.56315 23.7084
Pd 7.94482 6.41199 21.4376
Pd 11.603 9.83901 5.41101
Au 12.9366 7.71181 6.25055
Au 10.4803 9.80786 7.87752
Pd 8.4082 10.873 9.43058
Au 9.68554 8.52471 10.2608
Pd 13.1497 10.328 7.63862
Au 7.67016 9.69632 11.8607
Pd 5.83373 11.0266 13.5705
Au 7.65912 9.27127 14.5931
Pd 10.124 10.9061 11.6573
Au 5.58304 10.2403 16.2636
Pd 5.71051 12.2768 18.0772
Au 7.80772 9.00647 17.3804
Pd 8.02037 11.5569 16.08
Au 5.74979 9.8395 19.1026
Pd 6.89609 11.0556 21.3766
Au 8.03775 8.79712 20.218
Pd 8.17733 11.2589 18.9403
Au 9.17386 9.97953 22.5266
Pd 10.2559 11.1032 24.802
Au 11.3915 8.82144 23.7576
Pd 11.584 11.3286 22.4437
Pd 10.1921 11.854 4.43357
Au 13.0451 11.922 4.16587
Au 9.14922 12.0515 6.96852
Pd 7.13336 13.2056 8.55581
Au 10.9134 12.1596 9.20002
Pd 11.8673 12.3622 6.61011
Au 6.48457 12.1127 11.0272
Pd 6.20262 14.0264 12.9998
Au 8.21318 12.1334 13.273
Pd 8.91823 13.315 10.7216
Au 5.77299 13.0003 15.4555
Pd 5.65494 14.8255 17.4995
Au 8.23852 13.6828 17.7965
Pd 8.24213 14.228 15.0268
Au 6.93046 13.5415 20.2672
Pd 8.20331 14.78 22.4494
Au 9.36 12.4937 21.2171
Pd 9.48922 14.9743 20.0152
Au 8.07895 12.2914 23.6044
Pd 9.24185 13.3635 25.8935
Au 12.6762 12.446 24.84
Pd 10.536 13.6231 23.5452
Pd 10.0779 16.1801 3.552
Au 11.5837 13.9272 3.17765
Au 7.72572 14.227 6.04343
Pd 7.21379 16.0423 8.05206
Au 9.57685 14.5163 8.20768
Pd 10.4551 14.3529 5.57622
Au 6.71587 15.0422 10.5418
Pd 6.39614 16.8649 12.6185
Au 8.72917 15.2943 12.5513
Pd 9.19636 16.3966 10.104
Au 5.99642 15.8441 15.0624
Pd 5.82263 17.5535 17.3134
Au 8.20102 16.1769 16.9601
Pd 8.52637 17.14 14.544
Au 6.98379 16.0931 19.4395
Pd 8.25296 17.2847 21.4309
Au 10.7359 16.1602 22.2866
Pd 9.52434 17.445 18.9188
Au 9.47297 15.909 24.6845
Pd 10.6309 17.1343 26.9063
Au 11.627 14.7691 25.9545
Pd 11.9379 17.4071 24.6492
Pd 11.3992 18.5031 3.56009
Au 12.6165 20.8685 3.44484
Au 9.04632 16.6391 6.09021
Pd 8.38526 18.5476 7.97764
Au 10.8291 17.1959 8.13674
Pd 10.3346 19.0299 6.04361
Au 6.81336 17.8477 10.0937
Pd 6.56337 19.658 12.3445
Au 8.83175 18.1713 12.0806
Pd 10.1872 19.1644 9.9218
Au 6.20659 18.6108 14.842
Pd 6.05057 20.3123 17.1719
Au 8.37066 18.9292 16.8426
Pd 8.68884 19.8946 14.3471
Au 7.15374 18.8563 19.3806
Pd 8.40092 20.0754 21.5051
Au 10.6835 18.6095 21.0081
Pd 9.64456 20.2993 18.947
Au 9.43821 18.4009 23.5505
Pd 10.3405 19.6192 25.7042
Au 12.6607 19.1535 26.8449
Pd 11.6652 19.8047 23.2225
Pd 7.85219 20.3487 5.95441
Au 11.0396 23.0678 3.80694
Au 8.57005 18.441 4.07759
Pd 7.35818 22.2568 8.09679
Au 9.66524 21.0327 7.81065
Pd 9.11799 22.6979 5.7556
Au 7.82061 20.3791 10.0179
Pd 6.00807 23.4236 12.7524
Au 8.06648 21.9064 12.34
Pd 7.72788 23.7197 10.3641
Au 6.52715 21.3634 14.6384
Pd 7.47235 23.8134 14.9408
Au 8.43343 21.7575 16.7796
Pd 9.75396 22.3852 14.434
Au 7.32265 21.6008 19.3496
Pd 7.24858 24.2013 19.6552
Au 10.7095 21.5584 21.3299
Pd 6.15282 23.0993 17.2622
Au 11.4358 23.3932 23.4402
Pd 10.123 24.6572 21.5567
Au 12.1674 21.5381 25.2837
Pd 9.75302 23.1596 19.3048
Pd 11.6881 5.33164 7.39217
Pd 9.36953 6.00042 11.5518
Pd 11.4227 4.9061 10.0533
Pd 9.52239 5.79845 14.2817
Pd 11.5703 4.74771 12.7752
Pd 9.69909 5.60695 17.0393
Pd 11.7478 4.61214 15.5165
Pd 9.8902 5.44063 19.8052
Pd 11.9383 4.48231 18.2741
Pd 10.1575 5.37579 22.5168
Pd 12.1385 4.39951 21.0048
Pd 14.4102 9.92311 5.25116
Au 14.3217 5.59152 7.09191
Au 11.8249 7.50748 8.74641
Pd 12.1738 9.77512 10.157
Au 11.8297 7.18129 11.4665
Pd 14.4191 8.22373 8.51795
Au 9.75664 8.27139 13.005
Pd 10.154 10.6082 14.4462
Au 11.9648 7.04421 14.2202
Pd 12.2375 9.56513 12.9016
Au 9.88715 8.07032 15.7709
Pd 10.2573 10.3981 17.2483
Au 12.1211 6.9035 16.9857
Pd 12.3503 9.41797 15.669
Au 10.0561 7.87762 18.5543
Pd 10.4684 10.1977 20.0773
Au 12.2958 6.77362 19.7817
Pd 12.4964 9.26057 18.4554
Au 10.3161 7.72825 21.38
Pd 13.765 10.1905 23.6751
Au 12.5226 6.54235 22.6596
Pd 12.6851 9.05598 21.327
Pd 14.5803 13.9537 3.08166
Au 15.9948 11.9609 4.13777
Au 14.6739 12.4105 6.49101
Pd 13.5125 12.9148 8.96293
Au 14.7061 10.7517 9.96091
Pd 16.1836 14.4875 5.32117
Au 12.5728 12.1454 11.4828
Pd 10.5806 13.3121 13.0223
Au 12.6012 11.9516 14.3034
Pd 15.0402 13.2977 11.3895
Au 10.4648 12.9093 15.9107
Pd 10.7724 15.1149 17.543
Au 12.7071 11.7685 17.1267
Pd 12.9439 14.265 15.7889
Au 10.64 12.6859 18.7783
Pd 11.8049 13.8687 21.1178
Au 12.8701 11.5669 19.9885
Pd 13.0814 14.0891 18.6335
Au 13.99 12.6839 22.4111
Pd 14.4518 14.3239 25.7797
Au 15.5025 12.0253 24.6839
Pd 15.7556 14.5225 23.4141
Pd 13.0089 16.2232 3.21356
Au 15.9034 16.2602 3.10371
Au 13.2933 14.4376 5.329
Pd 12.2364 14.9158 7.8026
Au 15.0314 14.957 7.70388
Pd 14.6747 16.8399 5.37597
Au 11.3485 14.5738 10.4665
Pd 11.2097 16.6187 12.2065
Au 12.9756 14.5461 12.8421
Pd 13.8678 15.4523 10.1804
Au 10.7228 15.4647 14.6862
Pd 10.741 17.5284 16.4482
Au 13.2477 16.5899 17.3061
Pd 13.1792 16.7111 14.4662
Au 12.0048 16.3874 19.8227
Pd 13.2109 17.5914 22.2465
Au 14.2276 15.242 21.0649
Pd 14.4777 17.8128 19.7761
Au 12.956 15.0182 23.5636
Pd 13.4296 16.6118 26.8566
Au 16.2466 16.0916 26.8431
Pd 14.7693 16.8401 24.6033
Pd 13.5417 23.035 4.78583
Au 14.2215 18.6034 3.27662
Au 11.8548 16.7508 5.59622
Pd 12.0684 19.8143 8.10757
Au 13.5783 17.3721 7.80485
Pd 13.1175 19.2113 5.64222
Au 12.4903 17.9152 10.2534
Pd 10.3271 20.4047 12.2395
Au 13.3057 18.822 12.7305
Pd 12.5688 20.8121 10.7614
Au 10.9834 18.5028 14.0675
Pd 10.8096 20.345 16.3151
Au 13.3572 19.0708 15.7775
Pd 15.0096 21.1239 14.3941
Au 11.9521 18.8112 18.4316
Pd 12.9412 19.9568 20.6809
Au 15.1762 19.6444 22.0467
Pd 12.0116 21.6252 18.7598
Au 13.9349 19.4295 24.5213
Pd 14.5153 21.2123 26.5203
Au 15.379 18.6349 26.7964
Pd 15.7366 21.5121 24.1868
Pd 11.4276 24.0791 6.23436
Au 13.7769 25.1967 6.17335
Au 11.5713 21.4688 5.91509
Pd 9.5562 23.8771 8.1323
Au 12.0489 22.689 8.65766
Pd 12.0279 25.3656 8.37966
Au 9.86346 22.1489 10.1742
Pd 8.87297 24.4346 12.6998
Au 11.2 23.027 12.221
Pd 10.3126 24.8616 10.4561
Au 12.2431 21.0101 13.9769
Pd 8.49303 24.4896 17.2814
Au 10.7996 23.1335 16.8269
Pd 9.97939 25.0879 15.052
Au 11.8138 25.9889 19.9763
Pd 9.25202 25.8537 19.3947
Au 12.4077 23.535 20.6933
Pd 11.0127 25.7409 17.4302
Au 13.441 21.7843 22.709
Pd 13.2392 25.3723 22.497
Au 13.9545 23.5627 24.7487
Pd 15.9372 26.5254 21.889
Pd 13.424 3.70405 8.6823
Pd 13.6424 3.70506 11.3201
Pd 15.9231 4.13045 9.79679
Pd 13.8196 3.63524 14.0335
Pd 16.0919 4.0663 12.5462
Pd 14.0067 3.54626 16.7806
Pd 16.2599 4.00604 15.2978
Pd 14.2022 3.48645 19.5528
Pd 16.4376 3.9296 18.0535
Pd 14.3788 3.70161 22.2939
Pd 16.5915 3.89881 20.7878
Pd 15.723 7.78185 6.12079
Au 16.3981 6.40419 8.44076
Au 13.8999 5.98314 9.87245
Pd 14.3222 8.38639 11.3384
Au 16.3639 6.43422 11.2018
Pd 16.6998 8.85045 9.87434
Au 14.049 5.95966 12.6779
Pd 14.4462 8.35066 14.1131
Au 16.5041 6.39943 13.964
Pd 16.7561 8.87186 12.6461
Au 14.2081 5.87679 15.4458
Pd 14.5886 8.25563 16.8799
Au 16.6629 6.32332 16.7324
Pd 16.8874 8.80805 15.4105
Au 14.3822 5.7902 18.2144
Pd 14.7418 8.16951 19.6697
Au 16.8324 6.24126 19.5269
Pd 17.0218 8.70249 18.1891
Au 14.5612 5.80664 20.9724
Pd 14.8631 7.92671 22.5765
Au 16.9042 6.09341 22.3778
Pd 17.1166 8.54966 21.0507
Pd 17.5461 14.0262 3.15348
Au 17.2829 9.83135 5.11386
Au 15.978 10.2665 7.50864
Pd 16.2912 12.8558 8.95938
Au 17.0324 11.3336 11.2823
Pd 17.5016 12.3895 6.53612
Au 14.703 10.8194 12.764
Pd 15.0686 13.2612 14.206
Au 17.1363 11.2937 14.0892
Pd 17.3749 13.7478 12.7322
Au 14.8138 10.7385 15.5506
Pd 15.1731 13.1163 17.0148
Au 17.2514 11.1893 16.8815
Pd 17.5045 13.6612 15.5748
Au 14.9456 10.6074 18.3509
Pd 15.2766 12.9039 19.8825
Au 17.3487 11.0422 19.7115
Pd 17.5723 13.5513 18.3824
Au 15.075 10.3855 21.2534
Pd 17.2614 13.835 25.6652
Au 16.5872 9.72942 23.5494
Pd 16.7863 12.2258 22.2368
Pd 16.7839 18.5969 4.11623
Au 18.6038 16.4119 3.64028
Au 17.3857 16.8138 6.02741
Pd 16.2235 17.249 8.49904
Au 17.9069 14.9458 8.06582
Pd 18.2286 19.0584 7.4693
Au 16.7029 15.3754 10.5047
Pd 15.3674 15.8009 12.8902
Au 17.7683 16.0379 14.2109
Pd 17.4107 17.8499 12.1572
Au 15.4264 15.5985 15.6849
Pd 15.7127 17.8425 17.2433
Au 17.8521 16.0757 17.0889
Pd 18.2966 18.348 15.4425
Au 15.5028 15.4189 18.5661
Pd 15.9988 17.0368 22.2007
Au 17.0009 14.7325 20.9259
Pd 17.1999 17.2606 19.7422
Au 17.5578 16.3119 24.5033
Pd 18.1565 18.1296 26.5495
Au 19.1003 15.5924 26.6761
Pd 20.3614 15.7921 24.2524
Pd 15.1212 20.8819 4.62873
Au 17.6844 20.8146 5.41366
Au 15.6572 19.0939 6.55306
Pd 14.5161 19.6321 9.07794
Au 17.0264 19.4881 9.89102
Pd 16.514 21.2853 7.86131
Au 15.0737 17.7 10.9663
Pd 15.4002 20.2798 11.9043
Au 16.4527 20.2012 16.3641
Pd 17.4427 21.9448 11.0538
Au 15.6722 18.2667 14.3056
Pd 13.222 21.8424 16.3401
Au 16.4572 20.0797 19.6183
Pd 14.851 23.8905 15.2227
Au 14.2865 20.1088 18.1337
Pd 14.5613 22.0618 20.1356
Au 17.8878 19.0989 21.8913
Pd 15.5101 22.5808 17.5461
Au 16.6609 18.9037 24.3798
Pd 17.2422 20.7101 26.3699
Au 20.9438 17.594 26.2496
Pd 16.2776 23.2644 26.2015
Pd 14.4506 24.1057 8.32409
Au 15.9151 23.2877 6.1282
Au 14.0058 21.6082 7.08834
Pd 12.9529 24.4374 10.6815
Au 14.8874 22.1726 9.98546
Pd 16.8202 26.1646 12.6755
Au 13.8857 22.674 12.4793
Pd 11.4811 25.6025 12.853
Au 16.3417 23.4862 12.9801
Pd 14.175 25.3833 13.0858
Au 12.2589 23.7277 14.5916
Pd 13.0457 25.9657 15.6431
Au 15.4856 26.9007 15.0539
Pd 15.7757 27.7221 19.2367
Au 13.1283 24.131 17.904
Pd 13.7291 27.4808 20.8467
Au 14.6331 25.1012 19.9623
Pd 13.5042 26.9036 18.1254
Au 15.3226 23.7604 22.2837
Pd 15.8659 25.4163 24.3389
Au 19.1209 22.68 26.0406
Pd 18.3323 27.356 21.0477
Pd 18.3366 4.64362 8.37866
Pd 18.3857 4.58196 11.0879
Pd 20.6899 5.13109 9.61092
Pd 18.5301 4.53936 13.8272
Pd 20.8093 5.07038 12.351
Pd 18.6945 4.47515 16.5688
Pd 20.9563 5.02923 15.1013
Pd 18.8591 4.40722 19.3019
Pd 21.1179 4.98822 17.842
Pd 18.962 4.47215 21.9917
Pd 21.2293 5.00885 20.5686
Pd 18.0212 8.44966 7.47713
Au 17.7575 6.07244 6.15974
Au 18.7286 6.95941 9.7072
Pd 19.0642 9.37289 11.1241
Au 21.109 7.45011 10.9347
Pd 20.4028 8.96192 8.7019
Au 18.802 6.93046 12.4782
Pd 19.1872 9.34605 13.9249
Au 21.2366 7.41741 13.7471
Pd 21.4719 9.8265 12.3517
Au 18.9406 6.88034 15.2444
Pd 19.3119 9.28265 16.7009
Au 21.3719 7.38694 16.5203
Pd 21.6337 9.8203 15.1935
Au 19.0926 6.80906 18.0169
Pd 19.4066 9.21902 19.4976
Au 21.491 7.37308 19.3105
Pd 21.7146 9.84281 17.9912
Au 19.1948 6.78407 20.8128
Pd 18.7302 7.97527 23.2537
Au 20.7934 6.24663 22.941
Pd 20.9839 8.67297 21.7377
Pd 18.8503 11.9725 4.24771
Au 19.5887 10.4952 6.49648
Au 18.3127 10.9229 8.87575
Pd 18.6927 13.3733 10.3102
Au 20.7465 11.3907 10.114
Pd 19.9376 12.9527 7.87117
Au 19.4278 11.7672 12.5393
Pd 19.8376 14.0474 13.9878
Au 21.9169 12.1206 13.7516
Pd 21.2302 13.6926 11.5507
Au 19.5864 11.7278 15.3964
Pd 19.9154 14.1645 16.8986
Au 21.9927 12.2818 16.6934
Pd 22.4508 14.373 15.047
Au 19.6517 11.7062 18.197
Pd 19.0891 12.922 20.7073
Au 21.1831 11.1429 20.458
Pd 21.4403 13.6119 19.215
Au 18.8739 10.4204 22.0189
Pd 18.3224 11.5501 24.4684
Au 20.4924 9.82596 24.2292
Pd 20.6429 12.2782 22.9755
Pd 19.3784 18.6012 5.0948
Au 20.3562 14.169 3.41663
Au 19.0872 14.5159 5.64398
Pd 18.6851 17.3065 9.65474
Au 20.5056 15.257 9.39262
Pd 19.8924 16.8578 7.19626
Au 19.2001 15.6988 11.8343
Pd 19.8515 18.0809 13.2696
Au 21.7816 15.9784 12.9559
Pd 21.1559 17.6001 10.8696
Au 20.3579 16.3184 15.2677
Pd 18.2319 18.9884 18.0019
Au 20.2823 17.2655 17.6901
Pd 21.2148 18.9657 15.5778
Au 19.3134 15.4177 19.4539
Pd 18.7985 16.5103 22.0258
Au 20.8961 14.7557 21.7164
Pd 21.8825 16.4771 19.8489
Au 18.5372 14.0168 23.249
Pd 21.8752 15.0716 26.3759
Au 20.0747 13.3087 25.5009
Pd 21.4685 17.5184 22.3801
Pd 18.555 22.9338 6.74335
Au 20.2254 20.8155 6.50228
Au 20.6574 19.2038 8.70578
Pd 18.8839 22.8126 13.284
Au 19.3198 19.7323 11.1899
Pd 20.2418 22.349 11.0352
Au 17.6715 20.3177 13.5142
Pd 17.2563 22.5527 15.412
Au 22.5354 18.6778 13.141
Pd 20.6803 20.7411 13.3299
Au 19.3924 20.9112 15.6676
Pd 18.2299 21.7646 17.8324
Au 20.7029 19.9867 18.1145
Pd 23.8631 19.7401 15.527
Au 19.8392 18.2812 20.2031
Pd 17.0394 21.7003 21.8588
Au 20.6149 20.1282 22.2776
Pd 19.0449 20.9693 20.1622
Au 19.4634 18.3521 24.1144
Pd 20.0194 20.1248 26.0803
Au 22.1444 19.3301 24.4119
Pd 18.5657 20.9197 23.9862
Pd 17.1288 23.6658 8.86706
Au 22.9305 22.9551 10.8726
Au 18.9673 21.3772 8.8756
Pd 22.7371 24.3863 15.3216
Au 19.8455 23.9606 8.9012
Pd 18.3531 24.4962 11.153
Au 15.5891 24.7836 10.7427
Pd 19.5702 25.4971 13.3648
Au 17.4657 25.1306 15.0252
Pd 19.7863 26.3941 15.9419
Au 18.0282 27.6526 14.4661
Pd 17.5172 27.1683 17.0891
Au 19.6275 23.8796 19.7
Pd 21.4064 25.1261 17.4897
Au 15.5705 25.3813 17.3128
Pd 17.2466 25.7095 19.3854
Au 16.9424 23.1394 19.6697
Pd 18.3929 24.4444 17.3992
Au 17.6398 23.4538 23.9635
Pd 18.1437 25.1569 25.8666
Au 21.2159 21.9155 24.3261
Pd 18.3312 26.3951 23.5587
Pd 20.0668 6.57592 7.35184
Pd 23.058 5.60724 10.8419
Pd 21.6659 8.58545 6.34022
Pd 23.2153 5.56459 13.6217
Pd 25.3686 6.07586 12.1055
Pd 23.3731 5.5632 16.356
Pd 26.362 11.7223 16.8655
Pd 23.4958 5.61761 19.0748
Pd 25.59 6.14863 14.8827
Pd 23.0473 6.83975 21.5066
Pd 25.2347 7.49703 19.9852
Pd 19.3092 8.08088 5.17151
Au 20.8561 10.1227 4.23236
Au 22.4411 7.02366 8.53242
Pd 22.7941 9.43197 9.93277
Au 24.743 7.5011 9.80796
Pd 23.9951 9.07678 7.58548
Au 23.507 7.92155 12.1818
Pd 23.9531 10.2139 13.5159
Au 25.9639 8.29763 13.342
Pd 25.2526 9.79776 11.0904
Au 23.6998 7.9552 15.0047
Pd 26.4519 10.5523 14.5293
Au 25.686 6.24732 17.5833
Pd 25.8068 12.0873 12.414
Au 23.7684 8.01535 17.7809
Pd 24.0469 10.3989 16.4463
Au 26.0739 8.55577 16.2872
Pd 24.3773 13.5968 17.1472
Au 23.2938 9.30678 20.2514
Pd 22.5566 8.12775 23.8533
Au 24.8066 8.73181 22.4303
Pd 25.5655 9.91954 18.7466
Pd 21.2115 12.5237 5.48303
Au 23.1946 10.6171 5.3901
Au 22.0338 10.9955 7.71741
Pd 22.5454 13.3026 9.11195
Au 24.5551 11.3596 8.86798
Pd 22.8272 14.42 4.59455
Au 23.2962 11.7453 11.2934
Pd 23.8177 14.0158 12.6921
Au 23.7703 12.9174 6.6649
Pd 25.0985 13.6164 10.3029
Au 24.5214 12.4584 14.79
Pd 22.3237 15.4348 17.4284
Au 27.1539 13.1596 14.6431
Pd 25.1789 15.0739 14.9604
Au 23.5655 11.7633 18.9712
Pd 23.0535 12.9992 21.4468
Au 25.1637 11.165 21.2308
Pd 26.0558 12.8406 19.2415
Au 22.7601 10.5662 22.6802
Pd 22.2641 11.6963 25.1467
Au 24.2744 9.99158 24.7291
Pd 24.6105 12.399 23.6307
Pd 21.8438 18.6481 6.33713
Au 21.098 16.4546 4.77942
Au 21.7383 14.8316 6.95664
Pd 22.4225 17.1021 8.46495
Au 24.4265 15.133 8.14178
Pd 23.5599 16.6047 6.08646
Au 23.1455 15.5592 10.5645
Pd 26.4575 14.7288 12.5541
Au 27.7745 15.8118 14.8547
Pd 25.7887 16.2695 10.4203
Au 23.1494 17.0009 15.2644
Pd 24.9451 16.2988 17.4153
Au 26.9862 14.4116 17.073
Pd 25.7542 17.7232 15.1673
Au 24.0133 14.6713 19.5375
Pd 23.503 15.7563 21.9562
Au 25.6755 13.9828 21.6499
Pd 26.5688 15.5459 19.4979
Au 22.4633 14.108 23.9065
Pd 22.9881 16.7544 24.5194
Au 24.005 13.5733 25.938
Pd 25.0398 15.106 24.0115
Pd 21.6227 21.9002 8.66302
Au 23.3576 19.8054 8.45118
Au 22.0538 20.3172 10.8863
Pd 23.3318 21.3047 13.1862
Au 25.0615 17.7632 8.28827
Pd 24.7004 20.8996 10.8174
Au 23.8661 18.2566 10.6729
Pd 25.1581 19.2967 13.0454
Au 27.1553 17.3371 12.7045
Pd 26.4394 18.8896 10.6385
Au 28.2638 18.4543 14.9999
Pd 23.2146 20.8381 18.0847
Au 27.5019 17.1343 17.2919
Pd 24.5072 16.6631 12.8229
Au 22.9098 18.1764 17.7441
Pd 21.5766 21.8327 20.2613
Au 26.0588 16.6593 21.9241
Pd 24.4494 17.3762 19.8816
Au 22.458 19.2368 20.3295
Pd 23.1912 21.0026 22.3336
Au 24.0903 18.4295 22.4759
Pd 26.9364 18.1744 19.7585
Pd 21.0223 24.8889 11.1133
Au 24.1778 23.8409 13.1061
Au 21.5438 23.4054 13.2159
Pd 20.9123 22.5914 17.7853
Au 25.9653 21.8911 13.0666
Pd 26.4522 20.3992 15.3457
Au 20.074 23.7244 15.4818
Pd 23.524 23.4142 17.6617
Au 27.6998 19.9347 12.8748
Pd 24.6336 22.389 15.4066
Au 25.5471 19.0399 17.6405
Pd 25.6285 21.6669 17.8377
Au 25.0285 20.0571 20.1925
Pd 22.0543 21.7215 15.5825
Au 17.8922 24.6885 21.6933
Pd 19.6882 26.4959 18.8882
Au 22.2301 23.5437 22.3348
Pd 24.0873 22.5212 20.1381
Au 20.4213 25.6335 21.6218
Pd 19.6946 22.7161 22.1687
Au 20.1934 24.4925 24.1417
Pd 22.2234 24.4573 19.8562
