665
Atoms. Timestep: 20158
Pd 5.56075 5.70277 7.44828
Pd 5.52127 5.63482 11.2828
Pd 5.50628 5.62069 15.23
Pd 5.52772 5.63282 19.1771
Pd 5.57339 5.69896 23.0115
Au 5.56551 7.54547 5.57818
Au 5.38149 7.49032 9.36499
Pd 5.41123 9.41985 7.4292
Au 5.35654 7.42769 13.2604
Pd 5.34022 9.37823 11.316
Au 5.35975 7.42668 17.2008
Pd 5.32366 9.33836 15.2311
Au 5.391 7.4875 21.096
Pd 5.34657 9.37644 19.146
Au 5.58093 7.54091 24.8823
Pd 5.42381 9.41622 23.0325
Au 5.52798 11.3214 5.54253
Au 5.31059 11.3457 9.33776
Pd 5.39005 13.2744 7.37842
Au 5.25399 11.3132 13.2714
Pd 5.28214 13.279 11.2918
Au 5.25722 11.3125 17.1919
Pd 5.24979 13.2671 15.232
Au 5.32014 11.3431 21.1251
Pd 5.28866 13.2778 19.1722
Au 5.54369 11.3165 24.9203
Pd 5.40279 13.2705 23.0856
Au 5.5178 15.2252 5.53422
Au 5.29427 15.2235 9.3039
Pd 5.38854 17.1743 7.38036
Au 5.21905 15.2232 13.2617
Pd 5.28143 17.1679 11.2925
Au 5.22233 15.2228 17.2027
Pd 5.24904 17.1796 15.2316
Au 5.30422 15.221 21.1618
Pd 5.2878 17.1657 19.1737
Au 5.53345 15.22 24.9309
Pd 5.40199 17.1705 23.0868
Au 5.52492 19.1301 5.54845
Au 5.30888 19.1027 9.33974
Pd 5.41895 21.0237 7.43486
Au 5.25272 19.1354 13.2703
Pd 5.3387 21.0739 11.3134
Au 5.25547 19.1315 17.1942
Pd 5.32081 21.106 15.2345
Au 5.31851 19.0992 21.1276
Pd 5.34403 21.0666 19.1493
Au 5.54215 19.1236 24.9225
Pd 5.42149 21.0251 23.036
Au 7.43566 24.7803 5.57697
Au 5.38174 22.9624 9.35622
Pd 5.59501 22.9062 5.58591
Au 5.35214 23.0168 13.2652
Pd 5.5126 24.8067 11.2861
Au 5.35623 23.0171 17.2049
Pd 5.5018 24.8239 15.2349
Au 5.38775 22.9545 21.1003
Pd 5.52356 24.8101 19.1822
Au 5.57808 22.8994 24.8868
Pd 5.56944 24.7421 23.0167
Pd 7.43647 5.70366 5.56945
Pd 7.4014 5.55208 9.35129
Pd 9.3426 5.553 7.40687
Pd 7.35214 5.51114 13.2584
Pd 9.30859 5.45732 11.2996
Pd 7.35537 5.51015 17.1985
Pd 9.28117 5.43262 15.2269
Pd 7.411 5.5492 21.1055
Pd 9.31502 5.4554 19.1541
Pd 7.45205 5.69922 24.8873
Pd 9.35529 5.54929 23.0468
Pd 7.41537 9.42081 5.42175
Au 9.35203 7.49223 5.38789
Au 7.43709 7.54304 7.44667
Pd 7.33923 9.431 9.37958
Au 9.36574 7.42528 9.37207
Pd 9.36893 9.43197 7.34653
Au 7.35922 7.45813 11.3155
Pd 7.28516 9.37732 13.2758
Au 9.32228 7.3562 13.27
Pd 9.32289 9.38227 11.3257
Au 7.3421 7.43178 15.229
Pd 7.28833 9.37641 17.1832
Au 9.32547 7.35524 17.1847
Pd 9.29881 9.34776 15.2279
Au 7.36558 7.45622 19.1423
Pd 7.3487 9.42828 21.0791
Au 9.37527 7.42247 21.0824
Pd 9.3292 9.38045 19.1299
Au 7.44966 7.53934 23.0109
Pd 7.43129 9.41591 25.0369
Au 9.36812 7.48745 25.0666
Pd 9.38176 9.42812 23.1089
Pd 7.36269 13.2754 5.40259
Au 9.32282 11.3477 5.31893
Au 7.36984 11.3504 7.38138
Pd 7.28553 13.2863 9.33693
Au 9.32584 11.3574 9.33412
Pd 9.32426 13.2874 7.29478
Au 7.23952 11.3477 11.3221
Pd 7.20676 13.2808 13.2722
Au 9.25997 11.3282 13.2761
Pd 9.2568 13.2869 11.3021
Au 7.208 11.3237 15.2301
Pd 7.20987 13.2803 17.1887
Au 9.26307 11.3275 17.1806
Pd 9.22203 13.2776 15.2288
Au 7.2458 11.3461 19.1378
Pd 7.29505 13.2835 21.124
Au 9.33537 11.3546 21.1224
Pd 9.26303 13.2853 19.1556
Au 7.38256 11.3465 23.0783
Pd 7.37874 13.2703 25.0584
Au 9.33905 11.3426 25.1376
Pd 9.3372 13.2833 23.1629
Pd 7.36118 17.1768 5.40416
Au 9.28631 15.2261 5.30487
Au 7.35042 15.2251 7.36408
Pd 7.28464 17.1615 9.33899
Au 9.29732 15.2245 9.3076
Pd 9.32475 17.1622 7.29606
Au 7.20632 15.2236 11.3014
Pd 7.20581 17.167 13.2721
Au 9.22197 15.2241 13.2669
Pd 9.25595 17.1619 11.303
Au 7.16871 15.2236 15.2305
Pd 7.20897 17.1653 17.1896
Au 9.2251 15.2231 17.1915
Pd 9.22112 17.1696 15.2296
Au 7.21271 15.2222 19.1609
Pd 7.29427 17.1594 21.1252
Au 9.30668 15.2219 21.1514
Pd 9.26221 17.1596 19.1568
Au 7.36327 15.2209 23.0981
Pd 7.37795 17.1704 25.0595
Au 9.30287 15.2207 25.154
Pd 9.33642 17.1593 23.164
Pd 7.42058 21.014 5.43292
Au 9.3261 19.0994 5.31987
Au 7.36966 19.0963 7.38577
Pd 7.33861 21.0199 9.38038
Au 9.3251 19.0923 9.33656
Pd 9.36678 21.0186 7.34998
Au 7.23767 19.1017 11.3226
Pd 7.28223 21.0698 13.278
Au 9.25817 19.1197 13.2776
Pd 9.321 21.0667 11.3288
Au 7.20612 19.1225 15.2314
Pd 7.28573 21.0683 17.1863
Au 9.26132 19.1184 17.1827
Pd 9.29608 21.0987 15.2308
Au 7.24419 19.098 19.1402
Pd 7.34629 21.0147 21.0824
Au 9.33379 19.0892 21.1246
Pd 9.3267 21.0643 19.133
Au 7.381 19.0954 23.0806
Pd 7.42901 21.0249 25.0402
Au 9.33749 19.0989 25.1398
Pd 9.37938 21.0146 23.1121
Pd 5.58409 24.775 7.45466
Au 9.32948 22.9677 5.38334
Au 7.43882 22.9108 7.45243
Pd 7.40304 24.9005 9.36547
Au 9.36568 23.0259 9.37877
Pd 9.33604 24.9095 7.41169
Au 7.35598 22.9894 11.319
Pd 7.34614 24.9343 13.2619
Au 9.31907 23.0911 13.2745
Pd 9.30874 24.9926 11.3095
Au 7.33842 23.0137 15.2329
Pd 7.35097 24.9344 17.2034
Au 9.32193 23.0903 17.1886
Pd 9.27619 25.0137 15.2313
Au 7.36222 22.9875 19.1464
Pd 7.40686 24.8936 21.1106
Au 9.37197 23.0213 21.0866
Pd 9.31071 24.9891 19.1591
Au 7.44656 22.9027 23.0152
Pd 7.44828 24.742 24.8924
Au 9.36492 22.9543 25.0708
Pd 9.3513 24.8935 23.0518
Pd 11.271 5.63757 5.52358
Pd 11.2941 5.45826 9.31078
Pd 13.2497 5.51394 7.35111
Pd 11.2692 5.3869 13.2564
Pd 13.2542 5.38783 11.2681
Pd 11.2725 5.38594 17.1941
Pd 13.2472 5.3484 15.2236
Pd 11.3038 5.45542 21.1396
Pd 13.2607 5.38593 19.1791
Pd 11.2869 5.63288 24.9268
Pd 13.2626 5.51012 23.096
Pd 11.3021 9.38108 5.3443
Au 13.2474 7.43143 5.35645
Au 11.3059 7.46001 7.36235
Pd 11.3183 9.38323 9.32689
Au 13.2636 7.35806 9.32209
Pd 13.2651 9.38015 7.28594
Au 11.3066 7.32745 11.3096
Pd 11.2948 9.30953 13.2717
Au 13.2609 7.26612 13.2607
Pd 13.2677 9.31044 11.2955
Au 11.2891 7.28845 15.2257
Pd 11.2979 9.30863 17.1807
Au 13.2642 7.26518 17.1874
Pd 13.262 9.26636 15.2246
Au 11.313 7.32557 19.1417
Pd 11.328 9.38038 21.1253
Au 13.2733 7.3552 21.126
Pd 13.2742 9.30859 19.1536
Au 11.3188 7.45619 23.0889
Pd 11.3184 9.37616 25.108
Au 13.2637 7.42657 25.0916
Pd 13.2781 9.37624 23.1631
Pd 11.2757 13.2821 5.28819
Au 13.2563 11.317 5.25576
Au 11.3103 11.3497 7.24449
Pd 11.2928 13.2878 9.26281
Au 13.2678 11.33 9.26172
Pd 13.2598 13.2833 7.20948
Au 11.2944 11.3288 11.2994
Pd 11.255 13.2757 13.2621
Au 13.259 11.287 13.2607
Pd 13.2563 13.2765 11.2577
Au 11.2716 11.3003 15.2267
Pd 11.2582 13.2748 17.1923
Au 13.2622 11.2861 17.1894
Pd 13.2468 13.2635 15.2255
Au 11.3007 11.327 19.154
Pd 11.3024 13.2851 21.1917
Au 13.2775 11.3272 21.1884
Pd 13.2627 13.2746 19.1934
Au 11.3234 11.3457 23.2087
Pd 11.292 13.277 25.1661
Au 13.2727 11.312 25.1942
Pd 13.2726 13.2796 23.2416
Pd 11.2774 17.1681 5.28886
Au 13.2462 15.2256 5.22248
Au 11.2881 15.225 7.21346
Pd 11.2923 17.1625 9.26368
Au 13.257 15.2256 9.22562
Pd 13.2587 17.1689 7.21032
Au 11.2672 15.2249 11.274
Pd 11.2543 17.1731 13.263
Au 13.2449 15.2248 13.2483
Pd 13.2555 17.174 11.2586
Au 11.2408 15.2239 15.2276
Pd 11.2573 17.172 17.1933
Au 13.248 15.2237 17.2038
Pd 13.246 17.1851 15.2266
Au 11.2735 15.2228 19.1814
Pd 11.3015 17.1594 21.1928
Au 13.2666 15.2226 21.2265
Pd 13.2618 17.1718 19.1945
Au 11.3005 15.2217 23.2421
Pd 11.2912 17.1653 25.1672
Au 13.2615 15.2215 25.2294
Pd 13.2718 17.1646 23.2427
Pd 11.2938 21.0774 5.34827
Au 13.2517 19.1394 5.25803
Au 11.309 19.1024 7.24611
Pd 11.3165 21.0677 9.32993
Au 13.2661 19.1216 9.26336
Pd 13.2611 21.0737 7.28841
Au 11.2932 19.1209 11.3015
Pd 11.2927 21.1389 13.2752
Au 13.2576 19.1624 13.2628
Pd 13.2657 21.14 11.2986
Au 11.2699 19.1472 15.2288
Pd 11.2954 21.1378 17.1839
Au 13.2606 19.1613 17.1917
Pd 13.2598 21.1819 15.2281
Au 11.2991 19.1186 19.1561
Pd 11.3255 21.0642 21.1285
Au 13.2758 19.1181 21.1905
Pd 13.2717 21.1377 19.1568
Au 11.3218 19.0977 23.2109
Pd 11.3159 21.0663 25.1112
Au 13.2711 19.1311 25.1964
Pd 13.2757 21.068 23.1662
Pd 11.2659 24.8119 5.52423
Au 13.2448 23.0213 5.35972
Au 11.2997 22.993 7.36515
Pd 11.2915 24.9932 9.3171
Au 13.2596 23.0936 9.32534
Pd 13.2443 24.9377 7.35444
Au 11.3052 23.1222 11.3154
Pd 11.2672 25.062 13.2639
Au 13.2587 23.1832 13.2659
Pd 13.2509 25.0628 11.2739
Au 11.2859 23.1589 15.2303
Pd 11.268 25.0604 17.199
Au 13.261 23.1821 17.1919
Pd 13.2441 25.1 15.23
Au 11.3095 23.12 19.1458
Pd 11.2996 24.9891 21.1447
Au 13.27 23.0901 21.1301
Pd 13.2565 25.0604 19.1842
Au 11.3155 22.9873 23.0931
Pd 11.2829 24.8097 24.9319
Au 13.2604 23.0167 25.0958
Pd 13.2585 24.9342 23.1012
Pd 15.2182 5.62528 5.50204
Pd 15.2214 5.43541 9.27681
Pd 17.1898 5.51475 7.3478
Pd 15.2247 5.34932 13.2428
Pd 17.1919 5.38867 11.2648
Pd 15.228 5.34838 17.2011
Pd 17.2056 5.34929 15.2203
Pd 15.2312 5.43253 21.167
Pd 17.1985 5.38678 19.1758
Pd 15.2342 5.62053 24.9418
Pd 17.2029 5.51091 23.0928
Pd 15.2173 9.34298 5.32119
Au 17.1879 7.43218 5.35312
Au 15.2193 7.43549 7.33872
Pd 15.2206 9.35047 9.29635
Au 17.1784 7.35885 9.31881
Pd 17.1728 9.38087 7.28265
Au 15.2227 7.29026 11.2856
Pd 15.2239 9.26725 13.2594
Au 17.1877 7.26698 13.2574
Pd 17.1768 9.3113 11.2922
Au 15.226 7.24502 15.2224
Pd 15.2271 9.26631 17.1864
Au 17.191 7.26604 17.1841
Pd 17.189 9.26721 15.2213
Au 15.2292 7.28838 19.1592
Pd 15.2304 9.34763 21.1495
Au 17.1882 7.35601 21.1227
Pd 17.1833 9.30939 19.1503
Au 15.2324 7.43163 23.1061
Pd 15.2336 9.3381 25.1245
Au 17.2043 7.42735 25.0884
Pd 17.1858 9.37703 23.1599
Pd 15.2169 13.271 5.24914
Au 17.1775 11.3176 5.25242
Au 15.2186 11.3272 7.20653
Pd 15.2198 13.2802 9.22146
Au 17.1726 11.331 9.25833
Pd 17.1765 13.2847 7.20605
Au 15.2219 11.3021 11.27
Pd 15.2231 13.2644 13.2461
Au 17.1879 11.2879 13.2573
Pd 17.1865 13.2775 11.2543
Au 15.2251 11.2699 15.2234
Pd 15.2263 13.2634 17.2018
Au 17.1912 11.2869 17.1862
Pd 17.2026 13.2643 15.2223
Au 15.2283 11.3002 19.1768
Pd 15.2296 13.2772 21.2263
Au 17.1824 11.328 21.1852
Pd 17.1931 13.2754 19.1902
Au 15.2316 11.3234 23.2403
Pd 15.2328 13.2664 25.1986
Au 17.1938 11.3128 25.191
Pd 17.1898 13.2804 23.2384
Pd 15.214 17.1842 5.25024
Au 17.186 15.2284 5.21933
Au 15.2175 15.2269 7.16905
Pd 15.2187 17.1724 9.22231
Au 17.1816 15.2268 9.22211
Pd 17.1751 17.1702 7.20687
Au 15.221 15.2257 11.2411
Pd 15.2223 17.186 13.2471
Au 17.2004 15.2256 13.2449
Pd 17.1856 17.1749 11.2552
Au 15.2243 15.2247 15.2244
Pd 15.2255 17.1849 17.2029
Au 17.2037 15.2245 17.2006
Pd 17.2018 17.1859 15.2233
Au 15.2275 15.2236 19.2078
Pd 15.2288 17.1689 21.2274
Au 17.1917 15.2235 21.2233
Pd 17.1924 17.1726 19.1914
Au 15.2308 15.2225 23.2796
Pd 15.232 17.1775 25.1996
Au 17.2033 15.2224 25.2262
Pd 17.189 17.1654 23.2395
Pd 15.2147 21.1112 5.32395
Au 17.1753 19.1374 5.25438
Au 15.2157 19.1267 7.20814
Pd 15.2176 21.102 9.29888
Au 17.1705 19.1224 9.26004
Pd 17.17 21.0732 7.28545
Au 15.2202 19.1493 11.2718
Pd 15.2217 21.1829 13.2627
Au 17.1863 19.1633 13.2593
Pd 17.1741 21.1409 11.295
Au 15.2236 19.1794 15.2257
Pd 15.2249 21.1818 17.1898
Au 17.1897 19.1621 17.1884
Pd 17.1867 21.1828 15.2245
Au 15.2267 19.147 19.1791
Pd 15.2279 21.0985 21.1527
Au 17.1808 19.1189 21.1874
Pd 17.181 21.1385 19.1537
Au 15.23 19.1216 23.2424
Pd 15.2311 21.1059 25.1277
Au 17.1921 19.1319 25.1932
Pd 17.1834 21.0688 23.1631
Pd 15.214 24.829 5.50655
Au 17.1845 23.023 5.35687
Au 15.2158 23.0178 7.34232
Pd 15.2164 25.0167 9.28104
Au 17.1748 23.0943 9.32258
Pd 17.1855 24.9394 7.35255
Au 15.2191 23.161 11.2894
Pd 15.2211 25.101 13.2484
Au 17.1843 23.1841 13.2615
Pd 17.1873 25.0634 11.2695
Au 15.2232 23.2041 15.2272
Pd 15.2244 25.0998 17.2069
Au 17.188 23.1829 17.1887
Pd 17.2017 25.1008 15.2258
Au 15.226 23.1587 19.1637
Pd 15.2271 25.0136 21.1723
Au 17.185 23.0909 21.1271
Pd 17.1947 25.0612 19.1814
Au 15.2291 23.0135 23.1103
Pd 15.2302 24.8236 24.947
Au 17.201 23.0175 25.0926
Pd 17.1988 24.935 23.0981
Pd 19.1654 5.63916 5.51698
Pd 19.1487 5.45992 9.30422
Pd 21.097 5.55546 7.39707
Pd 19.1803 5.38866 13.2497
Pd 21.1376 5.45995 11.2897
Pd 19.1835 5.3877 17.1875
Pd 21.1715 5.4353 15.2169
Pd 19.1585 5.45706 21.1331
Pd 21.1441 5.45799 19.1442
Pd 19.1815 5.63442 24.9203
Pd 21.11 5.55166 23.037
Pd 19.1325 9.38258 5.33765
Au 21.0834 7.49459 5.378
Au 19.1329 7.46159 7.35577
Pd 19.1228 9.3849 9.32029
Au 21.0763 7.42783 9.3622
Pd 21.0688 9.43454 7.33659
Au 19.1388 7.32915 11.303
Pd 19.153 9.31129 13.2651
Au 21.1263 7.35884 13.26
Pd 21.1216 9.38492 11.3157
Au 19.1628 7.2902 15.2191
Pd 19.1563 9.31032 17.1741
Au 21.1296 7.35786 17.1748
Pd 21.1521 9.35041 15.2179
Au 19.1453 7.32724 19.1352
Pd 19.1327 9.38197 21.119
Au 21.0861 7.42491 21.0728
Pd 21.1281 9.38292 19.1202
Au 19.1459 7.45777 23.0825
Pd 19.1488 9.37774 25.1016
Au 21.0997 7.48977 25.057
Pd 21.082 9.43051 23.0994
Pd 19.1565 13.2842 5.2815
Au 21.1104 11.3504 5.30884
Au 19.1264 11.3514 7.2378
Pd 19.1466 13.2899 9.25588
Au 21.1143 11.3601 9.32403
Pd 21.1115 13.2901 7.28461
Au 19.1492 11.3306 11.2926
Pd 19.191 13.2774 13.2553
Au 21.1869 11.3309 13.266
Pd 21.1859 13.2898 11.2917
Au 19.1786 11.302 15.2201
Pd 19.1943 13.2764 17.1858
Au 21.1902 11.3299 17.1708
Pd 21.2271 13.28 15.2188
Au 19.1558 11.3286 19.1476
Pd 19.1567 13.2867 21.1853
Au 21.1243 11.357 21.1128
Pd 21.1926 13.2877 19.146
Au 19.1398 11.3473 23.2024
Pd 19.1735 13.2787 25.1597
Au 21.1273 11.3451 25.1281
Pd 21.1251 13.2857 23.1533
Pd 19.1559 17.1724 5.28246
Au 21.1451 15.2286 5.29464
Au 19.1473 15.2279 7.20642
Pd 19.1456 17.1645 9.25678
Au 21.1413 15.2276 9.29705
Pd 21.1108 17.1661 7.28562
Au 19.1747 15.2266 11.2671
Pd 19.1901 17.1747 13.2563
Au 21.223 15.2265 13.2568
Pd 21.185 17.1643 11.2927
Au 19.2076 15.2255 15.2211
Pd 19.1935 17.1736 17.1869
Au 21.2264 15.2254 17.1819
Pd 21.2263 17.1719 15.2199
Au 19.1815 15.2244 19.175
Pd 19.1559 17.1611 21.1864
Au 21.1515 15.2243 21.1418
Pd 21.1918 17.1621 19.1471
Au 19.1611 15.2233 23.2357
Pd 19.1727 17.1669 25.1608
Au 21.1619 15.2232 25.1443
Pd 21.1243 17.1618 23.1544
Pd 19.1297 21.0733 5.34052
Au 21.1089 19.1068 5.31079
Au 19.1247 19.1038 7.23975
Pd 19.1201 21.0691 9.32316
Au 21.1127 19.0949 9.32601
Pd 21.0663 21.0214 7.33951
Au 19.1474 19.1225 11.2945
Pd 19.1504 21.1407 13.2681
Au 21.1851 19.122 13.2679
Pd 21.1189 21.069 11.3186
Au 19.1769 19.149 15.2222
Pd 19.1539 21.1395 17.1774
Au 21.1886 19.1209 17.1729
Pd 21.1496 21.1014 15.221
Au 19.1543 19.1202 19.1498
Pd 19.1303 21.0658 21.1223
Au 21.1228 19.0916 21.115
Pd 21.1257 21.0667 19.1235
Au 19.1382 19.0993 23.2046
Pd 19.1463 21.0679 25.1048
Au 21.1257 19.1013 25.1303
Pd 21.0797 21.017 23.1027
Pd 19.1612 24.8168 5.52175
Au 21.0799 22.9622 5.38187
Au 19.1293 22.9934 7.35959
Pd 19.1443 24.994 9.30906
Au 21.0728 23.027 9.36613
Pd 21.0927 24.9003 7.40188
Au 19.1352 23.1238 11.307
Pd 19.1759 25.0633 13.2547
Au 21.1228 23.094 13.2641
Pd 21.1332 24.9939 11.2947
Au 19.1595 23.1607 15.2233
Pd 19.1796 25.0622 17.1929
Au 21.1263 23.0929 17.1791
Pd 21.1673 25.0165 15.222
Au 19.1422 23.1216 19.1397
Pd 19.1546 24.9907 21.1386
Au 21.083 23.0237 21.0772
Pd 21.1401 24.9917 19.1496
Au 19.1427 22.9889 23.0869
Pd 19.1776 24.8113 24.9256
Au 21.0965 22.9566 25.0614
Pd 21.1062 24.8958 23.0425
Pd 23 5.70683 5.55652
Pd 23.0416 5.55561 9.3381
Pd 24.879 5.70731 7.432
Pd 23.0973 5.51471 13.2452
Pd 24.9248 5.63928 11.2666
Pd 23.1005 5.51369 17.1854
Pd 24.9463 5.62512 15.2138
Pd 23.0513 5.55258 21.0926
Pd 24.9313 5.63715 19.161
Pd 23.0161 5.70219 24.8745
Pd 24.8919 5.70308 22.9957
Pd 23.0189 9.42438 5.40847
Au 24.8698 7.54982 5.56167
Au 23.0016 7.54648 7.43351
Pd 23.1018 9.43454 9.36622
Au 25.0605 7.49486 9.34846
Pd 25.0265 9.42421 7.41253
Au 23.086 7.46168 11.3023
Pd 23.1625 9.38091 13.2624
Au 25.0919 7.43218 13.2439
Pd 25.1041 9.38273 11.2994
Au 23.1097 7.43535 15.2158
Pd 23.1658 9.37988 17.17
Au 25.0952 7.43111 17.1843
Pd 25.1272 9.34284 15.2146
Au 23.0926 7.45964 19.1293
Pd 23.1118 9.43149 21.0663
Au 25.0703 7.49167 21.0799
Pd 25.1108 9.38061 19.1297
Au 23.0147 7.54251 22.9983
Pd 23.0356 9.41915 25.0242
Au 24.8863 7.54478 24.8668
Pd 25.0398 9.42012 23.0167
Pd 23.07 13.2789 5.38909
Au 24.9058 11.3257 5.52603
Au 23.067 11.3539 7.36797
Pd 23.1538 13.2899 9.32331
Au 25.1295 11.3501 9.32095
Pd 25.046 13.2788 7.3617
Au 23.2039 11.3513 11.3085
Pd 23.2391 13.2844 13.2585
Au 25.1927 11.3178 13.2545
Pd 25.1603 13.2837 11.2748
Au 23.242 11.3273 15.2166
Pd 23.2425 13.2834 17.1757
Au 25.196 11.3167 17.1755
Pd 25.1993 13.2713 15.2155
Au 23.2106 11.3493 19.1248
Pd 23.1639 13.2867 21.1111
Au 25.1396 11.347 21.1091
Pd 25.167 13.2816 19.1562
Au 23.0804 11.3497 23.0656
Pd 23.0867 13.2736 25.0455
Au 24.9223 11.3205 24.9044
Pd 25.0594 13.2745 23.0696
Pd 23.0692 17.1791 5.39009
Au 24.9145 15.2293 5.51755
Au 23.0847 15.2285 7.35042
Pd 23.153 17.166 9.32433
Au 25.1438 15.2284 9.28654
Pd 25.0452 17.179 7.36272
Au 23.2353 15.2275 11.2873
Pd 23.2383 17.1694 13.2595
Au 25.2259 15.2273 13.245
Pd 25.1594 17.172 11.2758
Au 23.2794 15.2264 15.2176
Pd 23.2416 17.1683 17.1767
Au 25.2293 15.2263 17.1868
Pd 25.1985 17.1824 15.2165
Au 23.2421 15.2253 19.1479
Pd 23.1631 17.1628 21.1122
Au 25.154 15.2252 21.1455
Pd 25.1662 17.1699 19.1572
Au 23.0981 15.2242 23.0852
Pd 23.0859 17.1737 25.0466
Au 24.931 15.2241 24.915
Pd 25.0586 17.1747 23.0706
Pd 23.0166 21.0336 5.41147
Au 24.9042 19.1329 5.52808
Au 23.0654 19.103 7.36999
Pd 23.0993 21.0213 9.36921
Au 25.1279 19.1066 9.32302
Pd 25.0241 21.0335 7.41563
Au 23.2023 19.1035 11.3105
Pd 23.1599 21.0729 13.2654
Au 25.191 19.137 13.2565
Pd 25.1016 21.073 11.3024
Au 23.2403 19.1255 15.2187
Pd 23.1633 21.0718 17.1731
Au 25.1943 19.1359 17.1775
Pd 25.1246 21.1108 15.2176
Au 23.209 19.1013 19.1269
Pd 23.1094 21.018 21.0695
Au 25.138 19.1033 21.1112
Pd 25.1083 21.0708 19.1328
Au 23.0788 19.0987 23.0678
Pd 23.0333 21.0281 25.0275
Au 24.9207 19.1276 24.9066
Pd 25.0375 21.0291 23.0198
Pd 22.9958 24.7506 5.5612
Au 24.8668 22.9088 5.56585
Au 22.9983 22.9102 7.43745
Pd 23.0372 24.9002 9.3431
Au 25.057 22.9619 9.35241
Pd 24.8746 24.7505 7.43692
Au 23.0826 22.9931 11.3063
Pd 23.0929 24.939 13.2503
Au 25.0885 23.0225 13.2479
Pd 24.9205 24.8164 11.2715
Au 23.1062 23.0173 15.2198
Pd 23.0963 24.9379 17.1905
Au 25.0918 23.0214 17.1884
Pd 24.942 24.8284 15.2188
Au 23.0893 22.9909 19.1335
Pd 23.0473 24.8968 21.098
Au 25.0671 22.9586 21.084
Pd 24.9272 24.8141 19.1662
Au 23.0116 22.9058 23.0026
Pd 23.0123 24.745 24.8799
Au 24.8833 22.9032 24.871
Pd 24.888 24.746 23.001
