665
Atoms. Timestep: 20617
Pd 9.92897 6.14659 8.44793
Pd 5.48933 16.9254 15.925
Pd 7.67485 16.733 14.4527
Pd 7.88748 6.13664 17.9039
Pd 6.14642 7.8167 19.2059
Au 10.537 10.836 4.98584
Au 7.88617 6.61863 10.3175
Pd 8.03869 8.20428 8.14831
Au 6.91582 6.85532 15.1654
Pd 5.14225 13.5434 8.17253
Au 12.3489 5.54859 24.6972
Pd 3.30155 15.4947 15.489
Au 3.47358 17.0778 17.7486
Pd 9.66544 23.4519 19.9057
Au 3.84811 18.7731 8.75032
Pd 6.57438 15.6781 23.5743
Au 9.57962 13.5118 4.0792
Au 6.38356 7.59165 12.4689
Pd 8.1842 10.6634 6.89961
Au 3.9684 10.1757 16.3921
Pd 5.7246 11.8957 17.3141
Au 5.11831 15.5998 13.0723
Pd 5.45974 18.2048 13.5605
Au 9.37101 22.3269 22.356
Pd 4.52346 20.6489 15.0252
Au 6.18902 21.8263 16.8767
Pd 15.4865 12.9283 22.209
Au 6.96161 14.4921 3.88441
Au 5.86978 11.5215 9.79342
Pd 4.47109 16.1031 8.69828
Au 2.60654 14.5273 18.0525
Pd 3.54099 12.8634 16.1254
Au 5.79329 23.0224 14.3783
Pd 7.64421 14.4901 12.9835
Au 6.28135 17.1734 18.551
Pd 6.63109 21.7589 19.5878
Au 19.1496 11.4899 27.5971
Pd 16.0581 23.7541 24.9027
Au 6.94018 12.9164 6.01095
Au 4.39675 17.6759 11.083
Pd 5.80426 20.4249 7.99689
Au 3.70309 12.6655 10.7715
Pd 5.4344 17.857 6.76871
Au 3.13062 13.8227 13.3653
Pd 9.57227 19.7688 16.0442
Au 7.30982 20.3472 21.9574
Pd 12.4844 15.9945 21.3387
Au 11.2857 13.1369 26.0147
Pd 13.6329 14.2435 24.893
Au 7.06497 19.671 5.60718
Au 3.28235 15.2305 10.9927
Pd 5.60929 15.2618 6.10374
Au 6.24312 22.9407 11.6497
Pd 6.27332 20.6383 13.0671
Au 7.42597 24.0369 18.5915
Pd 8.78195 21.9574 17.6008
Au 2.77649 16.8344 13.1494
Pd 9.02713 20.8803 20.039
Au 8.94791 13.1836 24.6415
Pd 11.9022 18.7569 20.8451
Pd 10.9939 6.18031 5.89074
Pd 8.79917 8.67913 11.8738
Pd 14.1423 8.16574 11.6132
Pd 10.6234 4.56871 13.5129
Pd 8.06816 5.61015 12.9339
Pd 8.49784 18.2876 20.379
Pd 7.88465 9.20181 14.4065
Pd 3.31368 18.3027 15.3048
Pd 15.1532 4.13833 23.4479
Pd 10.4841 4.88057 20.4267
Pd 6.11381 14.3098 21.1121
Pd 12.2348 13.1504 3.78097
Au 13.1441 10.6554 3.98198
Au 9.72737 8.53455 6.20233
Pd 8.4788 10.5276 9.55801
Au 10.2596 6.20285 11.4292
Pd 12.3984 12.2099 6.32724
Au 10.1993 8.48925 9.67881
Pd 6.255 11.2919 14.864
Au 3.67497 11.2747 13.93
Pd 10.3026 11.0816 11.5413
Au 5.12606 14.7312 17.5645
Pd 8.21302 12.5732 21.0223
Au 9.92092 4.22221 17.8858
Pd 7.60313 15.46 16.785
Au 7.07163 9.04424 21.3209
Pd 9.48073 10.2314 20.8358
Au 4.88907 19.3738 17.4259
Pd 11.1827 14.6697 23.6155
Au 8.66194 8.54818 18.908
Pd 10.1761 10.6939 24.7487
Au 8.96054 15.9057 24.7728
Pd 13.9054 10.859 21.9215
Pd 11.4917 15.6947 3.42601
Au 14.009 15.2304 2.87707
Au 9.7108 12.8435 6.68583
Pd 7.99891 12.582 11.1584
Au 10.7988 10.5452 7.87531
Pd 11.4754 14.7163 5.94978
Au 6.35255 8.85652 10.1002
Pd 5.57624 12.7316 12.6117
Au 8.69196 12.0557 13.7696
Pd 8.58486 15.0349 10.3256
Au 4.37888 12.9014 19.4203
Pd 7.57583 19.6407 18.1352
Au 6.35409 8.99283 16.8534
Pd 7.25136 10.7337 19.1602
Au 10.0207 14.6532 17.6787
Pd 7.17881 13.4966 18.7717
Au 8.22984 15.6408 19.8164
Pd 9.54618 12.0985 18.6832
Au 20.234 15.2433 26.1944
Pd 14.5529 16.5924 26.0024
Au 12.7043 11.8207 24.1677
Pd 9.14703 8.44548 22.9627
Pd 9.09037 18.7319 3.87525
Au 11.8821 18.4199 3.60865
Au 8.48652 15.1805 5.92001
Pd 7.75296 13.0374 8.52701
Au 10.3768 13.0057 9.32404
Pd 10.541 17.2024 5.62868
Au 4.38807 10.0982 11.6748
Pd 5.9107 14.514 10.5605
Au 5.77783 14.0116 15.0652
Pd 7.07513 15.6048 8.24321
Au 6.91058 19.2538 15.5804
Pd 4.29096 15.7333 19.881
Au 14.5299 15.9925 17.042
Pd 10.2927 17.3072 15.071
Au 10.2142 26.1058 19.7021
Pd 8.05565 10.874 23.0988
Au 5.77437 11.4791 21.2903
Pd 9.93247 19.7197 22.3061
Au 6.64728 13.0603 23.3521
Pd 12.869 13.4259 21.8992
Au 5.70025 19.3159 20.0894
Pd 11.5273 9.7572 22.6252
Pd 8.99801 16.1291 3.45013
Au 8.58576 21.3748 4.22492
Au 6.88786 17.1435 4.61506
Pd 8.25185 17.6262 6.9437
Au 10.0177 15.6262 8.10463
Pd 9.83841 19.8959 6.05638
Au 6.38987 17.9909 9.20874
Pd 3.35365 19.5049 12.7746
Au 7.02599 16.9468 11.6543
Pd 9.18475 17.5929 10.0088
Au 6.89069 10.4249 12.2712
Pd 8.05756 21.5879 14.7808
Au 13.0491 17.7657 14.9462
Pd 10.6554 16.7518 19.5564
Au 9.03054 17.4904 17.5066
Pd 10.2932 18.2259 24.6724
Au 12.7561 21.1357 25.5308
Pd 16.0316 21.036 18.1618
Au 10.2502 20.8805 24.6498
Pd 13.8931 9.33809 24.1952
Au 11.319 24.4975 21.776
Pd 11.9579 22.1605 23.1057
Pd 9.11884 23.9232 8.14116
Au 10.0934 22.9194 5.7475
Au 7.78067 21.987 6.76702
Pd 4.98798 20.412 10.6445
Au 8.31357 19.7758 8.3844
Pd 10.637 25.4981 9.67977
Au 7.51599 19.6515 10.9634
Pd 13.7516 25.6793 8.82099
Au 8.64461 19.0147 13.3437
Pd 7.66169 22.0603 9.55059
Au 4.01454 22.0092 12.6823
Pd 8.13513 24.1073 13.4041
Au 10.7498 20.7139 13.6704
Pd 8.67454 21.7931 12.1443
Au 13.7488 17.48 19.3777
Pd 11.4761 21.5059 20.5929
Au 14.4077 17.9449 21.9773
Pd 7.79592 23.9732 15.9919
Au 13.4151 24.3443 23.7331
Pd 12.7507 16.9268 23.9404
Au 14.06 22.8634 18.0835
Pd 12.4051 19.501 23.4269
Pd 12.42 6.73954 10.0589
Pd 13.8556 3.66082 9.60644
Pd 15.3641 2.45714 14.412
Pd 9.21431 7.8707 16.3775
Pd 12.6868 4.59091 17.6063
Pd 12.3867 6.72588 13.4895
Pd 16.6634 3.94767 9.74547
Pd 12.7115 6.15506 20.0309
Pd 14.9347 5.34108 18.7067
Pd 15.102 8.36985 21.9326
Pd 14.7775 6.69895 24.0942
Pd 14.867 12.6611 3.17641
Au 11.9293 8.38955 4.70681
Au 11.169 4.23272 9.85169
Pd 12.7129 9.58858 9.64268
Au 12.5459 5.20876 7.81886
Pd 11.837 7.87161 7.66989
Au 11.579 8.774 12.0742
Pd 8.56681 10.4412 16.7142
Au 13.3274 10.8085 12.8383
Pd 10.4544 10.0851 14.1842
Au 9.81178 7.27206 13.9359
Pd 5.12185 8.97068 14.2756
Au 13.2595 4.20982 14.462
Pd 14.0778 6.51733 15.7666
Au 10.597 6.68681 18.3582
Pd 10.5928 7.78634 20.7974
Au 8.26832 6.56921 20.7003
Pd 8.85674 5.08145 15.5443
Au 4.69797 10.1226 19.0541
Pd 15.4516 11.9871 24.8533
Au 12.5732 4.49754 22.2804
Pd 17.1432 6.7622 22.7748
Pd 14.552 17.9861 3.18628
Au 16.5156 14.6143 2.29198
Au 14.1664 14.0928 5.49933
Pd 12.8786 14.0525 8.38527
Au 14.1158 11.5701 8.28261
Pd 15.9345 16.0263 4.5948
Au 12.6104 12.1884 10.5695
Pd 11.5288 12.5806 13.7341
Au 11.8545 8.51653 15.7132
Pd 15.1732 13.3915 9.94991
Au 10.5921 14.0471 20.4004
Pd 12.6741 14.9466 18.7945
Au 12.6549 7.26328 22.5668
Pd 12.9043 10.9894 15.7094
Au 11.1984 8.06705 24.7344
Pd 15.0029 15.155 20.1613
Au 10.2814 6.01138 22.8599
Pd 12.0883 12.5369 17.9409
Au 17.0887 5.38457 25.0411
Pd 8.70715 14.7732 22.3452
Au 6.27434 17.0193 21.3263
Pd 11.7792 11.4217 20.3053
Pd 13.9495 20.3958 4.37515
Au 16.565 19.8268 3.74883
Au 13.2882 16.6711 5.17859
Pd 12.5248 16.6605 7.80839
Au 15.1167 15.9599 7.31349
Pd 15.2824 18.4507 5.8039
Au 10.3084 13.8741 11.9598
Pd 9.66024 14.6001 14.7921
Au 13.5008 14.3303 11.868
Pd 14.2695 16.0189 9.89038
Au 12.2078 20.2135 16.1704
Pd 10.4509 12.1629 16.0348
Au 11.9003 17.315 17.2949
Pd 7.97826 12.9672 16.2497
Au 10.2253 16.9754 22.2998
Pd 17.8591 12.5982 23.2597
Au 7.92571 18.007 23.2206
Pd 16.1307 17.2998 23.9798
Au 10.4115 12.2731 22.5663
Pd 16.429 14.6003 24.4263
Au 16.0234 7.05355 26.8937
Pd 19.8514 14.1157 23.7835
Pd 11.2222 20.8972 4.0858
Au 15.9255 22.1889 5.07118
Au 12.5722 19.1096 6.26344
Pd 10.764 18.5808 8.18277
Au 14.5168 18.4982 8.46491
Pd 14.7591 20.8564 7.13399
Au 11.5048 15.7766 10.4222
Pd 9.55605 16.4545 12.4925
Au 11.9564 15.6657 13.4798
Pd 12.5241 18.2874 10.2514
Au 12.1772 14.6669 15.9865
Pd 10.6659 19.4891 18.5254
Au 14.5255 18.7378 17.1623
Pd 14.645 23.2045 12.4584
Au 17.2734 15.0072 21.8436
Pd 15.9029 19.1518 19.9442
Au 14.5965 21.8578 23.6633
Pd 13.3059 20.3398 18.8578
Au 14.9864 9.71022 26.6678
Pd 13.5474 23.1245 21.0324
Au 18.1795 24.9005 23.3084
Pd 17.2049 18.8915 17.197
Pd 12.4089 21.7897 6.2661
Au 16.8449 22.7558 7.60498
Au 10.2756 21.5123 8.05448
Pd 10.4045 22.7826 10.3114
Au 12.6512 20.6185 8.87585
Pd 16.6913 22.0362 10.9487
Au 10.3055 20.0318 10.6612
Pd 16.6391 27.4415 11.9216
Au 12.2443 26.883 11.2771
Pd 12.5857 24.1857 10.915
Au 11.4386 18.3212 12.6594
Pd 10.1753 25.2896 14.9168
Au 9.86832 24.641 17.5193
Pd 10.3334 22.6482 15.5277
Au 18.2385 27.8794 16.2335
Pd 11.4061 22.1728 17.971
Au 12.2164 24.5279 19.1581
Pd 12.6401 27.1289 19.3792
Au 11.37 15.972 26.0024
Pd 16.0725 21.9424 20.6121
Au 13.77 25.9271 21.5091
Pd 15.2379 27.4077 19.6094
Pd 13.7369 6.87988 6.01153
Pd 14.1095 8.71769 14.2435
Pd 19.2135 7.63092 10.626
Pd 13.3809 3.52654 19.9545
Pd 14.9497 5.90756 10.3876
Pd 12.8256 4.69369 11.8344
Pd 17.3438 6.34112 8.86139
Pd 17.3695 4.23334 18.0921
Pd 14.8577 5.7534 21.4488
Pd 18.8967 8.68289 23.3609
Pd 16.7786 6.68514 17.2961
Pd 13.2832 9.67251 6.57743
Au 14.5001 7.72572 8.50055
Au 15.1863 5.10744 7.7512
Pd 16.495 8.37745 10.3411
Au 15.3188 3.62211 12.0177
Pd 14.985 10.5689 10.6603
Au 11.0688 3.23082 15.7699
Pd 14.9011 6.05554 13.1592
Au 17.2101 6.07585 11.7343
Pd 16.2315 9.49494 12.8999
Au 14.5983 4.95859 26.02
Pd 11.3318 5.91235 15.849
Au 15.2936 2.60137 18.2139
Pd 23.0887 9.47148 19.6046
Au 13.4004 7.50967 26.2729
Pd 13.5258 2.39091 16.3638
Au 17.7885 4.23975 22.5486
Pd 16.6953 7.2114 14.7108
Au 20.315 9.73173 25.9661
Pd 12.293 10.0784 26.2225
Au 18.7828 7.45743 25.8545
Pd 17.4884 9.12761 18.1705
Pd 17.1147 17.4122 2.57473
Au 16.9543 10.9314 3.73888
Au 15.1341 11.5344 5.6328
Pd 16.1054 13.411 7.44359
Au 15.7037 12.3871 12.4451
Pd 16.9113 13.4774 4.80094
Au 15.2594 8.89695 16.6099
Pd 16.0859 11.4004 17.7314
Au 15.5441 11.1938 15.0095
Pd 13.9334 13.2484 14.3162
Au 12.9231 8.92653 20.3194
Pd 13.0745 7.63074 17.8831
Au 11.0035 9.76464 18.0655
Pd 20.1464 13.1175 17.9415
Au 20.8092 12.4374 25.7325
Pd 17.6627 8.42275 20.7529
Au 23.6234 8.51956 22.859
Pd 13.705 10.3468 18.2578
Au 15.3287 7.94558 19.3122
Pd 18.6828 10.6651 21.4352
Au 23.364 10.9417 21.8358
Pd 16.0097 10.5435 20.2395
Pd 19.2743 20.0864 4.48746
Au 19.9257 17.7405 3.28896
Au 17.9161 17.8234 5.11054
Pd 17.178 17.7857 7.81495
Au 17.8085 15.4015 6.57714
Pd 19.0997 21.2574 8.13144
Au 17.0996 15.3205 9.34602
Pd 16.1783 15.0476 11.9072
Au 16.978 16.5261 15.7885
Pd 16.8602 17.2292 13.1367
Au 14.4475 13.2717 16.9186
Pd 16.9037 14.3356 17.4585
Au 16.6275 13.8497 14.7318
Pd 15.6566 18.8257 14.7651
Au 14.2177 12.621 19.6588
Pd 18.2036 13.3994 25.9519
Au 16.4738 10.3597 22.9157
Pd 18.8758 15.276 19.0752
Au 13.0916 14.7499 27.4832
Pd 18.349 19.0977 23.8969
Au 15.7003 24.0273 22.3188
Pd 18.5782 16.4104 23.951
Pd 14.3582 22.541 9.54993
Au 18.6807 22.4993 5.66379
Au 17.3151 20.222 6.36359
Pd 16.6376 20.2559 9.04447
Au 17.4793 19.6083 11.9899
Pd 18.6287 23.4109 9.64988
Au 16.3155 17.7171 10.454
Pd 14.1527 17.4468 12.2711
Au 14.7294 21.2397 15.8929
Pd 16.035 21.2516 13.5745
Au 14.7636 15.7829 14.2719
Pd 12.8067 22.432 14.3361
Au 15.628 14.2188 26.9347
Pd 18.8273 25.0745 16.4742
Au 19.369 17.2011 16.8437
Pd 14.2361 25.7134 17.7006
Au 16.505 11.7604 27.4176
Pd 12.8114 25.1048 13.5143
Au 20.0687 18.465 21.888
Pd 16.7326 21.0586 25.173
Au 22.5065 23.3307 21.8579
Pd 16.1437 19.8809 22.6908
Pd 18.3594 25.2558 7.87057
Au 15.9287 25.5266 6.99569
Au 14.3101 23.5603 6.96231
Pd 17.1075 24.3969 11.9688
Au 14.7558 20.0108 11.0262
Pd 14.0632 27.801 12.9459
Au 12.5191 21.5331 11.5514
Pd 8.39021 24.384 10.7788
Au 11.9511 23.6756 8.21082
Pd 20.6751 25.2859 9.45739
Au 10.7269 23.44 12.8989
Pd 11.572 26.684 16.9939
Au 10.0218 25.9146 12.3
Pd 22.2302 25.1226 13.9796
Au 11.5867 27.3648 14.0281
Pd 13.8868 20.5318 21.4218
Au 17.6819 28.5304 18.7863
Pd 15.5769 28.1266 17.133
Au 15.452 26.1348 23.7953
Pd 16.7058 26.4181 21.4779
Au 18.5916 23.0287 25.3323
Pd 13.7946 26.821 15.4219
Pd 16.3642 7.11608 6.4816
Pd 18.0964 3.40154 11.9557
Pd 19.2012 4.94273 10.1633
Pd 17.4322 2.65199 16.0901
Pd 19.2505 3.13006 14.2959
Pd 15.4145 4.40757 16.2283
Pd 23.4885 6.0493 15.5361
Pd 17.1674 5.89757 20.181
Pd 20.2143 10.5474 17.0938
Pd 18.5243 11.3927 18.9691
Pd 18.768 5.38568 15.8262
Pd 15.8969 9.61408 7.29847
Au 15.1363 8.89939 4.70576
Au 18.3093 10.2006 11.189
Pd 18.0137 11.5633 13.5099
Au 21.3732 8.08825 12.4199
Pd 18.1837 8.81987 8.28746
Au 19.5312 5.67685 12.9869
Pd 18.5979 8.2148 13.1532
Au 20.8876 6.93483 14.8867
Pd 20.3664 9.60178 14.5012
Au 21.5137 5.70375 17.2653
Pd 19.8626 3.60765 17.4052
Au 16.9783 4.5475 14.0653
Pd 21.8132 8.4262 17.1163
Au 16.0373 3.46428 20.6285
Pd 19.2462 7.9178 16.6438
Au 24.2581 7.21095 20.617
Pd 21.7506 7.17117 19.6258
Au 21.1489 9.00934 21.7377
Pd 19.2644 6.17905 18.6083
Au 22.108 6.32266 22.1823
Pd 19.5855 6.58438 21.2539
Pd 18.6584 12.9028 2.87123
Au 18.001 11.4944 6.45882
Au 16.9089 11.3379 9.03583
Pd 17.8962 13.0389 10.8174
Au 19.5542 10.9452 8.83493
Pd 18.9545 13.5471 8.28336
Au 20.2618 12.2497 14.7641
Pd 18.6222 14.3611 13.037
Au 20.2317 12.0785 11.9403
Pd 20.2547 14.5782 10.7031
Au 17.7188 9.64229 15.4292
Pd 19.2942 13.2286 21.0399
Au 19.2498 14.6362 15.8599
Pd 23.7892 12.8241 14.0121
Au 16.8837 13.2037 19.8607
Pd 21.2336 16.5328 23.7811
Au 21.5276 17.1347 19.9821
Pd 18.1077 12.1557 16.2991
Au 19.6198 5.94165 23.8663
Pd 25.9922 12.1421 21.6308
Au 18.8766 3.71618 20.1305
Pd 19.93 8.99096 19.2802
Pd 20.4354 23.4735 7.45379
Au 21.3453 15.3295 3.65005
Au 18.6028 15.4792 3.63933
Pd 18.8908 18.8721 9.67458
Au 19.5483 16.3763 8.64189
Pd 19.6601 18.8314 7.00774
Au 18.8115 16.7332 11.3657
Pd 19.2903 16.7695 14.1315
Au 21.2946 14.2368 13.4046
Pd 21.3479 17.9043 10.243
Au 22.1844 13.6087 16.1581
Pd 17.3865 17.6111 21.5846
Au 21.9311 20.6615 21.7438
Pd 21.7307 18.3272 17.616
Au 19.8603 15.7921 21.5544
Pd 16.5449 8.52587 24.7916
Au 25.0342 20.9594 18.0394
Pd 21.5256 14.1729 19.9497
Au 24.242 13.1226 23.3968
Pd 22.7733 15.3652 21.9806
Au 17.6216 9.26196 27.395
Pd 21.0257 22.2322 25.9996
Pd 21.2997 22.728 9.86797
Au 22.9427 22.1441 7.85346
Au 21.4288 20.0896 8.70752
Pd 17.151 23.6465 14.6221
Au 20.1697 19.2353 12.5586
Pd 19.4966 21.1651 10.8333
Au 13.5668 19.9811 13.4961
Pd 14.71 23.9035 15.5208
Au 21.4359 16.7953 12.5852
Pd 18.3446 19.2399 14.6359
Au 19.6256 19.9725 17.1045
Pd 16.7484 23.5735 17.5355
Au 20.647 20.0242 19.5558
Pd 21.2209 18.6566 15.0285
Au 21.8885 19.7876 26.4822
Pd 12.3036 24.2923 16.3051
Au 20.4711 25.0913 21.5352
Pd 18.2551 20.2541 21.0929
Au 14.6481 19.2707 24.9389
Pd 19.7346 24.4683 18.9333
Au 23.6307 23.2625 17.7039
Pd 19.8943 21.2367 23.6613
Pd 19.7645 24.184 11.8658
Au 21.6305 24.9609 16.8163
Au 23.8727 22.7586 10.3984
Pd 17.5704 22.2357 22.9056
Au 18.7821 28.4171 13.5481
Pd 18.5525 21.9788 13.1056
Au 14.3618 28.0928 10.2919
Pd 14.7183 25.6784 11.2459
Au 17.6627 21.4711 15.9618
Pd 17.8661 24.0953 20.6805
Au 16.3831 27.0371 9.11607
Pd 15.4799 25.6228 13.6731
Au 24.9728 20.9144 11.9415
Pd 22.4028 22.8283 15.3061
Au 24.0077 23.1341 13.1382
Pd 16.2372 28.0941 14.4909
Au 12.4522 18.4912 26.1696
Pd 16.3896 25.9058 16.0836
Au 17.3507 26.0038 18.5869
Pd 19.8775 22.4758 21.3316
Au 17.5555 16.0516 26.4257
Pd 20.0849 22.6904 16.9253
Pd 19.0145 6.87358 6.80476
Pd 21.4578 6.05282 10.6781
Pd 20.2078 9.38373 6.50649
Pd 20.9222 3.76717 12.1701
Pd 21.3814 4.33754 14.9575
Pd 21.3043 4.62746 19.7024
Pd 26.9749 13.1775 17.1731
Pd 25.4579 9.56226 21.0659
Pd 23.0465 8.46535 14.6177
Pd 25.4553 15.0874 21.944
Pd 24.076 9.73784 17.1728
Pd 17.8231 8.99916 5.39346
Au 19.6508 10.8933 4.39032
Au 20.7987 7.73546 8.56417
Pd 21.1198 9.88394 10.5815
Au 23.0268 8.11574 9.99559
Pd 22.2561 10.0188 8.04883
Au 24.1932 8.8491 12.2044
Pd 22.4365 10.7044 12.8826
Au 23.6917 10.8179 10.1307
Pd 23.5322 12.403 7.62075
Au 25.4671 7.9287 15.9232
Pd 26.6028 10.46 16.6972
Au 25.3829 11.4143 19.0348
Pd 25.171 11.5344 12.1396
Au 25.9162 8.6272 18.6639
Pd 22.4415 10.9425 15.5868
Au 24.9952 10.2422 14.4933
Pd 21.0536 11.3449 20.269
Au 23.8744 13.2294 20.5879
Pd 19.7307 17.8399 25.9908
Au 21.3724 8.02382 24.2688
Pd 22.5712 5.84571 13.0505
Pd 19.6556 13.7214 5.33897
Au 21.3225 12.662 3.45131
Au 20.8748 12.0576 6.82408
Pd 21.4506 14.6644 7.62064
Au 22.7058 13.6831 5.4367
Pd 21.6087 18.6429 5.14894
Au 21.6072 12.5839 9.41354
Pd 22.8638 13.0661 11.5966
Au 22.3962 10.8723 5.21777
Pd 24.7064 13.4188 9.873
Au 24.6522 12.3474 16.4858
Pd 22.6378 11.8605 18.2837
Au 26.5526 12.4 14.5574
Pd 24.5922 14.9848 15.3041
Au 26.7459 16.7616 20.1422
Pd 25.6572 18.2726 18.1719
Au 23.9398 6.98608 17.9799
Pd 23.3655 19.2945 19.5487
Au 13.7357 12.2113 26.9176
Pd 20.1656 11.0682 23.5158
Au 17.0013 18.5964 26.2146
Pd 17.9755 10.7745 25.2107
Pd 23.3414 19.5434 6.96173
Au 21.0956 21.1281 6.17478
Au 20.2388 16.4066 5.81228
Pd 21.9146 17.406 7.72729
Au 24.0914 15.1371 7.79744
Pd 22.9736 16.3228 5.60878
Au 22.7063 15.4947 10.0504
Pd 25.9145 14.0476 12.5518
Au 27.1527 14.9354 14.9692
Pd 25.3415 15.922 10.5729
Au 21.7446 16.0864 15.2886
Pd 21.7255 12.9311 22.4626
Au 26.3551 14.0142 19.6763
Pd 23.7732 16.7577 17.1081
Au 22.6001 10.7123 24.3853
Pd 18.863 18.0751 19.3594
Au 22.3716 17.1468 26.0489
Pd 23.8239 18.9421 24.5953
Au 25.4878 17.7827 22.2898
Pd 21.2488 19.1155 24.135
Au 20.4998 4.1527 22.1621
Pd 24.1702 16.5741 19.9055
Pd 21.4906 22.4243 12.6767
Au 24.3463 20.2615 9.37706
Au 22.3299 20.4076 11.1975
Pd 20.4002 21.1189 14.7696
Au 24.2432 17.6688 8.91701
Pd 26.0756 18.5997 10.9537
Au 23.714 18.073 11.6669
Pd 23.7084 17.5162 14.2906
Au 26.082 16.7177 13.0276
Pd 24.7946 21.689 15.3876
Au 26.1533 17.3805 15.6174
Pd 21.3375 15.6043 17.8203
Au 24.115 16.3212 24.0807
Pd 23.6978 15.3708 12.6866
Au 16.5761 16.7673 18.7868
Pd 21.5769 22.4924 19.2805
Au 24.4915 20.3629 22.4461
Pd 25.8757 19.5588 20.3702
Au 19.1694 20.4078 26.1834
Pd 14.6303 15.4165 22.758
Au 22.4468 14.3814 24.8616
Pd 26.2799 15.6954 17.6221
Pd 16.1704 24.4556 9.46402
Au 18.2304 25.9684 13.8181
Au 20.5267 26.6336 12.3828
Pd 22.8997 18.108 22.1142
Au 22.4108 24.756 11.4096
Pd 26.6248 19.908 16.2416
Au 18.4875 26.2066 10.5157
Pd 22.6648 21.4819 24.1462
Au 23.0005 20.3669 13.8655
Pd 19.9735 23.8938 14.486
Au 23.9815 14.3481 18.2003
Pd 25.6185 19.3097 13.8279
Au 24.0502 21.8897 20.251
Pd 22.2708 20.9426 17.1928
Au 19.0613 26.9235 20.4141
Pd 20.4545 26.7824 15.1295
Au 22.2866 25.0117 19.4802
Pd 23.9945 19.2521 16.2209
Au 18.4938 21.8911 18.9534
Pd 15.3737 24.588 19.7257
Au 20.7089 23.7431 23.8131
Pd 20.0694 26.9491 17.9619
