665
Atoms. Timestep: 20207
Pd 5.64441 5.4789 7.41056
Pd 5.58265 5.51598 11.2614
Pd 5.59514 5.68523 15.3539
Pd 5.85165 5.96793 19.6096
Pd 6.63683 6.28835 23.764
Au 5.63337 7.30756 5.52533
Au 5.42971 7.30753 9.28185
Pd 5.45415 9.23287 7.33002
Au 5.40679 7.3257 13.2302
Pd 5.36425 9.20409 11.2026
Au 5.52642 7.46967 17.38
Pd 5.37177 9.18292 15.2152
Au 6.03015 7.7645 21.6252
Pd 5.62198 9.31116 19.3912
Au 6.96361 8.3191 25.4593
Pd 6.22278 9.85508 23.4048
Au 5.58394 11.1912 5.47869
Au 5.32846 11.1843 9.19397
Pd 5.43352 13.1902 7.28054
Au 5.23784 11.0985 13.127
Pd 5.25082 13.1015 11.103
Au 5.27315 11.0587 17.1873
Pd 5.11086 12.9458 15.0667
Au 5.54594 11.4028 21.2037
Pd 5.13592 13.0607 19.0077
Au 5.66588 12.3734 24.8275
Pd 5.22673 13.791 22.6071
Au 5.6364 15.305 5.57261
Au 5.30773 15.1675 9.13473
Pd 5.52973 17.3343 7.38935
Au 5.02804 14.9384 13.0506
Pd 5.15439 17.0052 11.1251
Au 4.78936 14.8322 16.9452
Pd 4.77018 16.7568 15.0219
Au 4.79824 15.3957 20.3341
Pd 4.64928 17.2323 18.1642
Au 5.94809 15.007 25.063
Pd 5.25305 16.4526 22.854
Au 5.89804 19.5755 5.82902
Au 5.37403 19.1997 9.37237
Pd 5.78105 21.4558 7.85025
Au 4.81953 18.7505 13.1942
Pd 5.20193 20.8881 11.5475
Au 4.70341 19.1903 16.1644
Pd 5.11389 21.2044 14.3765
Au 4.73467 18.11 20.7838
Pd 4.72127 20.0334 18.7664
Au 4.79452 18.9858 23.6579
Pd 4.76495 20.7245 21.5312
Au 8.22058 25.5304 7.0431
Au 5.64036 23.1144 10.0735
Pd 6.31835 23.7517 6.50646
Au 5.69356 23.338 12.8147
Pd 6.57439 25.4683 11.3899
Au 4.8732 22.1536 16.9341
Pd 5.29584 24.3268 15.3616
Au 4.88253 22.6373 19.6007
Pd 5.49816 24.6576 18.0244
Au 4.9687 21.5765 24.0738
Pd 5.03739 23.3814 22.1714
Pd 7.52361 5.48634 5.54364
Pd 7.46899 5.40091 9.33284
Pd 9.41911 5.40445 7.39295
Pd 7.38402 5.47089 13.2849
Pd 9.35256 5.37642 11.2992
Pd 7.45899 5.62837 17.3772
Pd 9.28989 5.43296 15.2474
Pd 7.94932 5.87713 21.4675
Pd 9.50518 5.53113 19.2221
Pd 8.82609 6.46599 25.3558
Pd 10.174 5.9395 23.1976
Pd 7.43249 9.24147 5.36915
Au 9.38516 7.32554 5.35177
Au 7.48571 7.3583 7.39665
Pd 7.36474 9.2808 9.29808
Au 9.40427 7.30698 9.33569
Pd 9.37198 9.29233 7.30075
Au 7.40226 7.34284 11.266
Pd 7.31511 9.27144 13.2096
Au 9.35425 7.31225 13.2424
Pd 9.3405 9.29889 11.2684
Au 7.43709 7.42811 15.261
Pd 7.42379 9.35983 17.2318
Au 9.45677 7.39359 17.1961
Pd 9.36019 9.34008 15.1914
Au 7.73203 7.6171 19.349
Pd 7.81334 9.73173 21.2061
Au 9.93932 7.62032 21.0841
Pd 9.5713 9.53593 19.1164
Au 8.41363 8.06931 23.2527
Pd 7.76475 10.856 25.3994
Au 9.65136 8.96914 25.6736
Pd 9.48977 10.5059 23.3508
Pd 7.36609 13.217 5.37862
Au 9.27489 11.2186 5.27797
Au 7.38636 11.2203 7.31918
Pd 7.29099 13.1867 9.25086
Au 9.32382 11.2556 9.27887
Pd 9.29617 13.2034 7.26906
Au 7.23895 11.2147 11.2151
Pd 7.13451 13.1288 13.1558
Au 9.25897 11.2622 13.2044
Pd 9.23562 13.2064 11.2408
Au 7.20362 11.1913 15.1554
Pd 7.07115 13.1565 17.0441
Au 9.29864 11.3703 17.1173
Pd 9.16173 13.2172 15.1318
Au 7.32621 11.4061 19.108
Pd 7.10997 13.7536 20.7117
Au 9.33118 11.963 20.982
Pd 9.12451 13.5812 18.8512
Au 7.46153 12.2367 22.9666
Pd 8.18768 13.4924 25.4156
Au 10.359 11.6898 25.7176
Pd 9.97373 13.2841 23.4237
Pd 7.44821 17.3516 5.52893
Au 9.20694 15.2259 5.32146
Au 7.40695 15.2326 7.3823
Pd 7.30915 17.1761 9.38407
Au 9.2986 15.1912 9.31711
Pd 9.32766 17.2433 7.41605
Au 7.14096 15.1069 11.2052
Pd 6.95132 16.9164 13.2385
Au 9.13544 15.1245 13.2077
Pd 9.21987 17.0932 11.3591
Au 6.91686 15.0182 15.1123
Pd 6.85181 17.3202 16.565
Au 9.04116 15.351 16.8407
Pd 9.1137 17.2393 14.9082
Au 6.83395 15.4332 18.5557
Pd 7.19481 16.5943 21.0134
Au 9.54812 14.9953 21.2069
Pd 9.20423 16.7955 19.121
Au 7.70557 15.0366 23.1819
Pd 6.97138 17.5552 24.5504
Au 9.07873 16.0579 25.2998
Pd 9.04756 17.502 22.8297
Pd 7.75082 21.5721 6.00509
Au 9.28133 19.38 5.56722
Au 7.56287 19.339 7.69721
Pd 7.46044 21.0515 9.9243
Au 9.43654 19.1452 9.59402
Pd 9.63743 21.2566 7.83736
Au 7.09548 18.9328 11.5122
Pd 7.50929 21.2876 12.91
Au 9.37257 19.2345 13.065
Pd 9.81979 21.3184 11.2844
Au 7.03558 19.2311 14.6445
Pd 6.92907 20.3868 17.1087
Au 9.10017 18.7178 17.1802
Pd 9.18926 20.8081 15.3813
Au 6.89104 18.4065 19.047
Pd 6.98951 20.9542 19.9856
Au 9.08161 19.1771 20.5151
Pd 9.31393 21.0733 18.4645
Au 6.9068 19.087 22.1564
Pd 7.17459 20.2682 24.6651
Au 9.41351 18.7938 25.2436
Pd 9.34527 20.3679 22.9745
Pd 6.24545 25.2802 8.74262
Au 9.70783 23.5163 6.23269
Au 7.91209 23.2337 8.43301
Pd 8.74522 25.6112 9.72917
Au 10.3399 23.4393 9.54199
Pd 10.7339 25.5076 7.87625
Au 8.10567 23.4208 11.2993
Pd 7.49921 24.9903 13.9001
Au 9.38718 23.0964 13.7629
Pd 9.62067 25.4442 12.2779
Au 7.18834 22.6095 15.3619
Pd 7.73331 25.0699 16.5936
Au 9.64002 23.2224 16.681
Pd 10.0085 25.4335 15.0312
Au 7.3209 22.877 18.1428
Pd 7.05524 23.9673 20.589
Au 9.25715 22.4165 20.813
Pd 9.20722 24.6194 19.0389
Au 7.17952 21.8826 22.4841
Pd 6.68246 23.5656 24.3527
Au 8.98168 22.3295 24.8054
Pd 8.81799 24.1356 22.8039
Pd 11.3506 5.52349 5.51255
Pd 11.361 5.37846 9.30065
Pd 13.338 5.46129 7.34054
Pd 11.2962 5.35612 13.2386
Pd 13.2886 5.36858 11.2583
Pd 11.3093 5.33847 17.0714
Pd 13.3189 5.30596 15.0872
Pd 11.6382 5.46005 21.0081
Pd 13.324 5.17532 18.89
Pd 11.4823 6.98304 25.5805
Pd 12.9144 6.20095 23.4645
Pd 11.2867 9.24614 5.311
Au 13.2989 7.35296 5.35679
Au 11.3393 7.35521 7.33747
Pd 11.3255 9.30898 9.2829
Au 13.2888 7.32929 9.30273
Pd 13.2838 9.29341 7.25798
Au 11.3311 7.28282 11.2797
Pd 11.3255 9.2926 13.2133
Au 13.3204 7.27051 13.1756
Pd 13.3023 9.3027 11.2331
Au 11.3393 7.28265 15.1565
Pd 11.3978 9.35592 17.1032
Au 13.3475 7.22424 17.0145
Pd 13.3177 9.2843 15.1301
Au 11.5558 7.30556 18.9932
Pd 11.2948 9.98203 21.2335
Au 13.0445 7.76937 21.2644
Pd 13.2611 9.44523 19.1364
Au 11.2824 8.41355 23.4341
Pd 12.2864 9.68037 25.6473
Au 14.1585 7.64727 25.3905
Pd 13.8324 9.41726 23.3488
Pd 11.1686 13.1586 5.25375
Au 13.2231 11.1446 5.21679
Au 11.2748 11.2363 7.19986
Pd 11.2618 13.2197 9.22451
Au 13.2593 11.2769 9.20522
Pd 13.1648 13.1885 7.14485
Au 11.2977 11.2784 11.2457
Pd 11.2483 13.2381 13.1991
Au 13.2904 11.2869 13.1953
Pd 13.2522 13.2423 11.1992
Au 11.3018 11.3127 15.1624
Pd 11.2351 13.3779 17.0514
Au 13.3092 11.3391 17.1317
Pd 13.2724 13.273 15.1654
Au 11.3337 11.5835 19.0574
Pd 11.7057 13.1933 21.3116
Au 13.6573 11.2683 21.2287
Pd 13.4411 13.2577 19.1961
Au 12.0283 11.4165 23.5318
Pd 11.1247 14.2942 25.6374
Au 13.0956 12.3751 25.8535
Pd 13.0376 13.9287 23.5862
Pd 11.0663 17.223 5.31573
Au 12.9838 15.1368 5.12143
Au 11.1914 15.1839 7.19648
Pd 11.3079 17.1626 9.29875
Au 13.1983 15.1732 9.1598
Pd 13.1294 17.1183 7.10441
Au 11.2613 15.1858 11.2528
Pd 11.2986 17.1809 13.1764
Au 13.2649 15.2007 13.1969
Pd 13.3161 17.1335 11.214
Au 11.2092 15.2367 15.0869
Pd 11.2474 16.9999 17.1596
Au 13.3052 15.1823 17.1823
Pd 13.2712 17.1266 15.2203
Au 11.3879 15.1026 19.1928
Pd 11.1264 17.3595 21.0055
Au 13.1319 15.5081 21.3079
Pd 13.2317 17.2118 19.1319
Au 11.0729 15.7862 23.3354
Pd 11.5953 17.1265 25.6015
Au 13.6448 15.2952 25.8054
Pd 13.4917 17.0322 23.5731
Pd 11.2888 21.3001 5.5933
Au 13.0167 19.1026 5.13247
Au 11.3271 19.177 7.33641
Pd 11.8404 21.1435 9.35893
Au 13.4266 19.0242 9.1534
Pd 13.5622 20.9187 7.10876
Au 11.5337 19.1765 11.2967
Pd 11.3388 21.1343 13.5765
Au 13.307 19.1673 13.3742
Pd 13.3121 21.3028 11.6272
Au 11.2415 19.0017 15.2808
Pd 11.5013 21.2088 16.8856
Au 13.3435 19.1542 17.0931
Pd 13.5554 21.2826 15.1479
Au 11.2657 19.1301 18.8539
Pd 11.3455 20.6686 21.0778
Au 13.3673 18.9044 21.298
Pd 13.3001 20.9932 19.1719
Au 11.4657 18.7679 23.3745
Pd 11.2347 20.8485 25.1158
Au 13.4133 19.1337 25.3913
Pd 13.2628 20.8774 23.2224
Pd 12.237 25.0315 5.74991
Au 13.6539 22.8668 5.19878
Au 12.0912 23.1282 7.47857
Pd 11.653 25.6426 10.4332
Au 13.3164 23.4635 9.93265
Pd 13.4234 25.481 8.22679
Au 11.4559 23.4225 12.0074
Pd 12.1951 25.6462 13.2797
Au 13.8671 23.4811 13.228
Pd 14.2117 25.529 11.3597
Au 11.8143 23.4501 15.0353
Pd 11.3874 25.118 17.4001
Au 13.3494 23.2112 17.3395
Pd 13.46 25.4396 15.6543
Au 11.3034 22.9107 19.0922
Pd 11.0118 24.5903 21.1949
Au 13.1791 22.8547 21.1842
Pd 13.191 24.9445 19.4437
Au 11.0932 22.5427 22.9754
Pd 10.8206 24.3207 24.7342
Au 13.0905 22.8376 25.0745
Pd 13.0139 24.6486 23.1238
Pd 15.3616 5.6589 5.52905
Pd 15.2284 5.4112 9.32412
Pd 17.1801 5.35984 7.54791
Pd 15.3252 5.36154 13.0861
Pd 17.3155 5.47414 11.0838
Pd 15.3077 5.24262 17.029
Pd 17.2681 5.30524 15.0665
Pd 14.3915 5.43763 21.3507
Pd 16.1816 4.7942 19.6016
Pd 16.247 5.85099 24.8887
Pd 16.9173 5.02778 22.4206
Pd 15.3473 9.16061 5.35652
Au 17.5298 7.26257 5.70468
Au 15.2996 7.39797 7.40276
Pd 15.2887 9.36571 9.23723
Au 17.4092 7.4688 9.16012
Pd 17.3444 9.41617 7.26102
Au 15.3225 7.34323 11.1712
Pd 15.2893 9.30119 13.156
Au 17.2485 7.31619 13.1278
Pd 17.2908 9.38866 11.1721
Au 15.2857 7.2369 15.0776
Pd 15.2291 9.23588 17.1214
Au 17.1681 7.17997 17.0407
Pd 17.2297 9.267 15.13
Au 15.0382 7.21953 19.1298
Pd 15.4599 9.2063 21.0277
Au 17.2054 7.00499 20.7257
Pd 17.2511 9.11619 18.9806
Au 15.4048 7.30248 22.943
Pd 14.9494 10.3156 25.7133
Au 16.7792 8.32235 25.6815
Pd 16.675 9.79774 23.4599
Pd 15.0084 13.1631 5.11849
Au 17.0673 11.2951 5.14551
Au 15.2043 11.2509 7.13983
Pd 15.1768 13.2452 9.12863
Au 17.2226 11.3742 9.1723
Pd 17.0313 13.2945 7.04797
Au 15.2594 11.3149 11.1951
Pd 15.2475 13.2646 13.1987
Au 17.2314 11.3356 13.1971
Pd 17.1793 13.3231 11.1794
Au 15.2672 11.2731 15.1698
Pd 15.2934 13.2606 17.177
Au 17.2282 11.2367 17.1317
Pd 17.2211 13.2899 15.2093
Au 15.3684 11.2355 19.1072
Pd 15.0637 13.5967 21.4151
Au 16.8815 11.5771 21.3906
Pd 17.0981 13.3685 19.2898
Au 14.9323 11.9377 23.6034
Pd 15.6072 13.3879 25.7175
Au 17.451 11.368 25.4795
Pd 17.3081 13.3222 23.4716
Pd 14.8974 17.0104 4.95683
Au 16.8867 15.0849 4.91152
Au 15.0351 15.1529 7.00204
Pd 15.1902 17.0542 9.05774
Au 17.1049 15.198 9.07177
Pd 17.0458 16.9606 6.87493
Au 15.2056 15.1901 11.1689
Pd 15.2193 17.1816 13.2442
Au 17.1704 15.274 13.2062
Pd 17.0273 17.2324 11.1438
Au 15.2548 15.2146 15.2083
Pd 15.2624 17.1732 17.2075
Au 17.2148 15.231 17.2563
Pd 17.2502 17.1383 15.2644
Au 15.2043 15.3189 19.2652
Pd 15.3389 17.087 21.3995
Au 17.2659 15.2172 21.3636
Pd 17.246 17.1453 19.2775
Au 15.4284 15.2059 23.6203
Pd 15.4926 17.2421 25.4683
Au 17.5131 15.2771 25.4539
Pd 17.3384 17.1561 23.3952
Pd 15.2355 20.6877 4.85207
Au 17.0093 18.6654 4.6546
Au 15.2268 18.8795 6.87168
Pd 15.0379 21.2418 9.44202
Au 16.8498 19.2042 9.08302
Pd 16.6703 21.182 7.09163
Au 15.1515 19.2065 11.3103
Pd 15.5027 21.1934 13.2475
Au 17.2653 19.0567 13.2651
Pd 17.3578 20.9235 11.2028
Au 15.3412 19.1614 15.2315
Pd 15.2881 21.1529 17.3001
Au 17.2373 19.1268 17.268
Pd 17.2136 21.205 15.3706
Au 15.2708 19.0588 19.2473
Pd 15.2423 20.9674 21.2318
Au 17.2484 19.068 21.295
Pd 17.228 21.076 19.2729
Au 15.3342 19.0672 23.3915
Pd 15.2686 21.1046 25.2186
Au 17.3577 19.1715 25.3186
Pd 17.2474 21.0292 23.26
Pd 14.9393 25.1941 6.00696
Au 16.4036 23.101 5.15852
Au 14.9737 23.2335 7.63437
Pd 15.9351 25.1157 9.28105
Au 17.4706 22.7666 9.15968
Pd 17.4948 24.5058 7.13238
Au 15.7246 23.2014 11.2423
Pd 15.3855 25.584 13.7786
Au 17.1201 23.4006 13.5834
Pd 17.1273 25.4398 11.727
Au 15.3051 23.3772 15.5169
Pd 15.3071 25.179 17.5871
Au 17.2518 23.19 17.4046
Pd 17.3229 25.2708 15.6096
Au 15.2433 23.0767 19.3351
Pd 15.1579 24.8812 21.3561
Au 17.2149 23.0102 21.2608
Pd 17.2526 25.0292 19.4368
Au 15.1792 22.8649 23.1558
Pd 15.0899 24.6508 24.9474
Au 17.2235 22.9867 25.1607
Pd 17.181 24.8463 23.2068
Pd 19.5845 5.3028 6.44951
Pd 19.3703 5.67 9.21618
Pd 21.7417 5.521 8.11675
Pd 19.208 5.38406 13.0953
Pd 21.3059 5.53911 11.366
Pd 18.0053 4.72329 17.7847
Pd 19.8109 4.87186 15.9607
Pd 18.8329 4.78669 20.4514
Pd 20.8439 4.79778 18.4547
Pd 18.7329 6.42569 25.5789
Pd 19.5259 5.17063 23.1568
Pd 19.1962 9.58931 5.25944
Au 19.8493 7.06448 4.53205
Au 19.941 7.73939 7.23014
Pd 19.3811 9.54507 9.2208
Au 21.4073 7.64452 9.69963
Pd 21.3462 10.1683 7.20288
Au 19.2448 7.45013 11.264
Pd 19.2354 9.45068 13.1751
Au 21.3627 7.6759 13.0066
Pd 21.3086 9.78185 11.3029
Au 19.2568 7.30814 14.963
Pd 19.1707 9.17453 17.0667
Au 21.0883 7.09075 16.8757
Pd 21.147 9.47863 15.2013
Au 19.174 6.90765 18.788
Pd 18.5177 9.41062 21.3637
Au 20.0148 7.10598 21.3769
Pd 20.5394 9.17008 19.4406
Au 18.1048 7.45241 23.3098
Pd 19.2078 9.29174 24.9685
Au 20.8959 7.24761 24.3514
Pd 20.9061 9.38212 22.7036
Pd 18.9517 13.3009 5.02871
Au 21.12 11.6884 5.00631
Au 19.0895 11.5436 7.11044
Pd 19.112 13.4041 9.15821
Au 21.2183 11.7269 9.34257
Pd 21.1167 13.3978 7.16133
Au 19.1849 11.4826 11.2171
Pd 19.1405 13.4205 13.2195
Au 21.1372 11.6259 13.278
Pd 21.0784 13.6732 11.2412
Au 19.1784 11.355 15.2236
Pd 19.1402 13.2454 17.3144
Au 21.0005 11.1761 17.4738
Pd 21.2762 13.1344 15.5375
Au 18.877 11.3161 19.3107
Pd 19.1572 13.2985 21.2247
Au 21.087 11.3989 20.9115
Pd 21.2625 13.3611 19.0879
Au 19.1112 11.3549 23.2033
Pd 19.4326 13.2281 25.2181
Au 21.2605 11.1385 24.9143
Pd 21.2043 13.2084 23.0792
Pd 18.9473 16.8059 4.83222
Au 21.0338 15.0702 5.02115
Au 19.0314 15.1515 6.98301
Pd 18.8064 17.3401 8.96659
Au 20.8773 15.5521 9.07998
Pd 20.6377 17.3551 6.88056
Au 19.0231 15.42 11.1378
Pd 19.2644 17.0316 13.3644
Au 21.3685 15.0321 13.5666
Pd 21.3351 16.8312 11.5333
Au 19.2517 15.1605 15.3423
Pd 19.2418 17.1643 17.2463
Au 21.3227 15.2816 17.2051
Pd 21.2986 17.1874 15.2778
Au 19.2196 15.2299 19.2262
Pd 19.2373 17.1462 21.2694
Au 21.2179 15.2148 21.1519
Pd 21.2617 17.176 19.1997
Au 19.3081 15.2088 23.3193
Pd 19.3989 17.1781 25.2542
Au 21.3833 15.1341 25.1395
Pd 21.2477 17.1515 23.2014
Pd 18.2341 21.0834 4.79873
Au 20.2932 19.1094 4.68792
Au 18.552 19.2 6.7907
Pd 19.2272 20.5074 9.16503
Au 21.1865 18.5417 9.42382
Pd 21.0791 20.1413 7.12251
Au 19.2078 18.812 11.319
Pd 19.0472 21.138 13.3753
Au 21.1595 19.0698 13.3081
Pd 20.8616 20.9637 11.3638
Au 19.188 19.1226 15.2832
Pd 19.1916 21.1178 17.2899
Au 21.2274 19.1294 17.2333
Pd 21.1122 21.0911 15.2719
Au 19.2117 19.0929 19.2369
Pd 19.2005 21.0288 21.228
Au 21.2038 19.0899 21.1934
Pd 21.1826 21.0557 19.2193
Au 19.256 19.0968 23.2982
Pd 19.2592 21.0882 25.1972
Au 21.2793 19.1135 25.2049
Pd 21.1829 21.022 23.1951
Pd 19.0485 23.788 5.02423
Au 20.9051 21.7823 4.87536
Au 19.2213 22.2155 7.05873
Pd 18.7444 25.1155 9.59392
Au 20.4737 22.9391 9.485
Pd 20.252 24.6984 7.42862
Au 18.8273 23.2361 11.5594
Pd 19.188 25.2021 13.5135
Au 20.9848 23.0898 13.3197
Pd 20.9064 25.0045 11.3523
Au 19.1711 23.1946 15.3943
Pd 19.2777 25.0787 17.4284
Au 21.1596 23.0821 17.2927
Pd 21.1959 25.0294 15.3428
Au 19.2091 23.0867 19.2998
Pd 19.2163 24.9519 21.3071
Au 21.1678 23.0068 21.1981
Pd 21.2241 24.9786 19.3017
Au 19.21 22.9551 23.1857
Pd 19.2188 24.776 24.9991
Au 21.1965 22.9689 25.1545
Pd 21.1947 24.8808 23.1586
Pd 22.119 6.30445 5.68269
Pd 23.5666 5.93451 9.97596
Pd 24.3359 6.05213 7.35652
Pd 21.6505 5.40402 14.2581
Pd 23.7608 6.0756 12.9115
Pd 22.8967 5.20357 16.6016
Pd 25.1698 6.21896 15.2864
Pd 21.503 4.89585 21.0727
Pd 23.5751 4.89947 19.2251
Pd 22.1729 5.09855 23.6494
Pd 24.0829 5.14797 21.8385
Pd 21.7603 8.81624 4.96827
Au 24.3061 8.01894 5.46102
Au 22.8394 8.08936 7.56355
Pd 23.3308 10.0003 9.43031
Au 25.0976 7.9439 9.16553
Pd 25.0195 9.83713 7.34347
Au 23.5915 8.14861 11.3792
Pd 23.226 9.9251 13.3886
Au 25.3356 8.26666 13.5031
Pd 25.2847 10.227 11.4891
Au 23.091 7.64844 15.1243
Pd 22.7701 9.09003 17.6246
Au 24.4777 7.00301 17.7418
Pd 25.1455 9.09104 16.0755
Au 22.1467 7.0154 19.4097
Pd 23.0121 9.42409 20.5763
Au 24.7397 7.24786 20.4205
Pd 25.1746 9.45129 18.8765
Au 22.5789 7.31308 22.1524
Pd 22.9476 9.03969 24.4832
Au 24.2549 6.75626 23.9901
Pd 24.818 8.99354 22.545
Pd 23.2266 13.5202 5.36663
Au 23.5965 10.6527 5.23727
Au 23.3962 11.9413 7.49937
Pd 23.0671 13.8903 9.3274
Au 25.2416 12.115 9.48278
Pd 25.0506 14.0548 7.4549
Au 23.2038 11.9364 11.3479
Pd 23.4546 12.9939 13.8254
Au 25.5392 11.0664 14.1606
Pd 25.5616 13.0005 12.1206
Au 23.2986 11.1214 15.8257
Pd 23.4721 13.4628 17.1683
Au 25.5691 11.5613 17.1959
Pd 25.5777 13.5066 15.3357
Au 23.3546 11.4782 18.9218
Pd 23.2337 13.2772 21.0309
Au 25.1634 11.2382 21.0065
Pd 25.3343 13.3898 19.2212
Au 23.0448 11.175 22.7665
Pd 23.2117 13.0469 24.8702
Au 24.9171 10.9359 24.4555
Pd 25.1114 13.1653 22.9511
Pd 22.5527 17.2969 4.99005
Au 24.7547 15.828 5.41712
Au 22.8098 15.6047 7.14578
Pd 23.3357 16.6988 9.69081
Au 25.5306 14.8819 10.036
Pd 25.3077 16.7248 7.92116
Au 23.5167 14.9208 11.8212
Pd 23.3586 17.2134 13.3494
Au 25.583 15.4219 13.4146
Pd 25.2947 17.2629 11.4023
Au 23.5008 15.3297 15.266
Pd 23.3387 17.2498 17.2195
Au 25.4294 15.4121 17.2734
Pd 25.3284 17.3914 15.2739
Au 23.3556 15.3011 19.179
Pd 23.246 17.1904 21.163
Au 25.2505 15.2689 21.1909
Pd 25.2635 17.2782 19.2253
Au 23.1793 15.1725 23.0478
Pd 23.2124 17.1394 25.0719
Au 24.9772 15.1 24.8578
Pd 25.1418 17.1748 23.1243
Pd 22.8667 19.9094 5.13797
Au 25.0238 18.4372 5.81418
Au 23.1067 18.3871 7.51535
Pd 22.676 20.8232 9.3258
Au 24.975 19.0999 9.3152
Pd 24.3286 20.8164 7.2064
Au 23.138 19.033 11.3377
Pd 23.0251 21.0911 13.2252
Au 25.164 19.3181 13.2109
Pd 24.8224 21.1812 11.1125
Au 23.2557 19.2008 15.2421
Pd 23.1756 21.1057 17.2231
Au 25.2424 19.2684 17.2169
Pd 25.0782 21.2222 15.177
Au 23.2705 19.1439 19.1912
Pd 23.1915 21.0316 21.1589
Au 25.2221 19.1461 21.19
Pd 25.163 21.1241 19.1955
Au 23.1795 19.1118 23.1382
Pd 23.1509 21.0496 25.117
Au 25.0151 19.1273 24.9737
Pd 25.1407 21.048 23.1076
Pd 23.5831 22.438 5.20501
Au 23.8506 24.4484 6.90041
Au 22.0845 22.5965 7.35561
Pd 22.4587 24.748 9.13697
Au 24.4379 22.8826 8.97327
Pd 21.6967 24.2816 5.30936
Au 22.7124 22.9175 11.1884
Pd 22.9493 24.8983 13.1948
Au 24.888 23.0452 13.0997
Pd 24.5196 24.6853 10.9795
Au 23.028 23.0097 15.2284
Pd 23.1286 24.9222 17.2646
Au 25.0898 23.0438 17.2046
Pd 24.8553 24.7814 15.1611
Au 23.1428 22.991 19.2244
Pd 23.141 24.8921 21.2089
Au 25.153 22.972 21.1696
Pd 24.9818 24.7997 19.2294
Au 23.1184 22.9129 23.1034
Pd 23.1245 24.7488 24.9777
Au 25.0042 22.9177 24.9646
Pd 24.9976 24.7533 23.0952
