665
Atoms. Timestep: 20853
Pd 16.1657 13.5047 14.8413
Pd 19.5228 10.9057 21.5768
Pd 8.84009 4.6046 21.3728
Pd 11.4431 27.1032 18.5634
Pd 9.79744 22.8043 13.5595
Au 19.927 20.144 9.56502
Au 15.4379 18.8372 15.0855
Pd 13.8849 12.0527 21.8119
Au 7.289 6.43479 19.9501
Pd 8.83219 16.6447 20.9588
Au 5.34089 15.2171 17.4389
Pd 7.6876 9.65232 14.0401
Au 16.571 13.6791 5.16964
Pd 26.8633 15.1565 10.9818
Au 11.4372 5.85978 15.4916
Pd 18.6393 8.33106 21.1909
Au 18.2549 12.1548 16.6238
Au 15.8495 15.3182 10.2383
Pd 13.8301 3.68772 9.66246
Au 9.38342 10.775 20.437
Pd 12.1955 11.1958 15.5126
Au 18.1152 18.0768 14.5952
Pd 20.3717 8.29245 11.4511
Au 8.94838 11.4018 15.7641
Pd 17.2495 14.0158 12.1689
Au 15.4753 8.02854 21.2673
Pd 17.4764 8.19634 14.9928
Au 9.98207 7.97828 24.4312
Au 12.6712 22.0496 20.5882
Pd 13.2785 7.64153 11.5918
Au 10.3605 10.6437 25.0228
Pd 23.2665 9.71331 20.896
Au 18.9712 11.2451 8.60667
Pd 25.267 6.59568 13.2206
Au 27.9171 21.4228 13.66
Pd 26.0186 18.2329 14.6016
Au 8.81021 12.5341 23.4241
Pd 14.0157 17.1109 11.2088
Au 13.4321 22.3084 27.6254
Au 18.1522 27.1482 15.025
Pd 18.1723 12.1491 23.4682
Au 23.5676 22.3507 14.9903
Pd 8.53179 17.5071 24.0632
Au 4.74224 16.7142 11.607
Pd 5.71222 20.0657 21.3173
Au 20.0159 6.70692 7.38769
Pd 8.63889 13.947 5.70634
Au 12.6047 9.13775 26.0098
Pd 15.5678 7.37738 8.25958
Au 25.0831 17.4074 7.36918
Au 9.46026 25.951 20.2832
Pd 23.2287 19.0224 13.4031
Au 10.1238 13.9505 12.1236
Pd 10.2382 17.4462 15.9656
Au 7.74065 6.97352 10.369
Pd 22.4796 12.3897 16.2164
Au 19.6877 19.437 16.4337
Pd 21.771 12.0769 20.6056
Au 12.0954 3.17856 15.6906
Pd 23.9271 19.687 8.35032
Pd 12.7456 7.12392 21.6333
Pd 15.3594 14.0512 7.64657
Pd 11.6802 11.9684 19.7711
Pd 27.7119 15.1612 17.7915
Pd 20.043 14.2574 17.7813
Pd 4.09256 15.0252 19.8565
Pd 11.2644 6.90382 13.095
Pd 9.49957 19.1446 11.8145
Pd 13.653 18.47 26.5341
Pd 11.4241 9.64371 11.0126
Pd 20.0964 21.106 18.5557
Pd 15.4487 7.4292 16.527
Au 25.2575 14.6754 6.64528
Au 17.1709 5.94947 21.3387
Pd 14.9305 14.4847 21.205
Au 27.0382 8.77009 14.5116
Pd 28.3718 14.3845 13.0615
Au 12.8224 6.11713 18.9997
Pd 8.26616 15.0879 23.1343
Au 14.0794 11.8342 8.80401
Pd 15.9947 15.8638 19.1235
Au 5.92248 10.8116 23.0361
Pd 17.1423 16.0933 7.8493
Au 15.1232 15.2546 12.9643
Pd 17.0919 7.93463 19.0639
Au 9.72749 17.9731 9.27428
Pd 7.16958 14.1638 7.96242
Au 18.4044 13.7859 7.42753
Pd 11.2949 21.0572 12.1745
Au 21.8224 10.7894 23.0452
Pd 10.6901 15.0356 19.1005
Au 15.4521 20.3628 27.4379
Pd 14.8659 20.5852 20.0671
Pd 20.0532 7.83427 14.1976
Au 22.7974 23.4753 22.5377
Au 17.2204 7.75812 23.5093
Pd 9.77454 14.8183 16.6479
Au 11.1393 11.4649 22.3454
Pd 19.0852 4.09529 16.7141
Au 21.8983 14.2216 3.9794
Pd 10.483 19.8694 17.0003
Au 7.94195 14.887 18.7967
Pd 16.3316 18.5973 6.80922
Au 11.3233 24.5094 18.0948
Pd 12.5927 19.4368 21.3537
Au 13.3894 18.678 3.65979
Pd 6.90211 18.5732 7.60441
Au 18.4678 3.23244 12.3137
Pd 11.9197 19.724 7.95329
Au 19.4125 9.88093 3.83588
Pd 12.8272 19.0996 15.9497
Au 9.59631 16.134 4.52868
Pd 8.76133 24.5925 15.6777
Au 17.7222 21.0531 25.9654
Pd 20.0269 17.452 10.4073
Pd 11.4112 17.2234 11.5286
Au 11.2779 4.21744 17.9733
Au 16.4989 16.4988 21.8414
Pd 9.97015 22.3722 16.2562
Au 21.6715 25.6699 23.3193
Pd 13.9468 23.7787 24.9872
Au 6.19958 16.1731 24.4633
Pd 20.5295 6.38507 16.348
Au 17.4953 14.847 17.0541
Pd 21.8015 14.1245 24.7829
Au 6.43124 17.2932 22.0438
Pd 14.0637 21.1145 22.7855
Au 17.1503 17.9261 17.3879
Pd 5.91437 16.9257 14.1382
Au 22.2084 16.795 12.1907
Pd 10.5388 21.756 18.9028
Au 21.1167 3.68402 11.6765
Pd 2.98564 13.4546 14.6941
Au 3.71011 18.452 13.838
Pd 16.1541 3.03128 10.8618
Au 23.8166 21.1901 21.7176
Pd 11.8175 4.3076 20.7247
Pd 17.2057 17.6191 10.0293
Au 9.0794 9.05466 9.59855
Au 7.10044 16.7248 9.67522
Pd 10.486 23.6077 20.79
Au 16.4782 14.3737 23.7515
Pd 18.3248 7.05321 9.63315
Au 5.66273 21.9314 19.1149
Pd 15.9875 16.2707 15.2796
Au 17.0834 27.532 19.6293
Pd 16.6322 11.2305 12.0707
Au 3.68151 16.9504 8.97193
Pd 15.8113 7.70173 10.8119
Au 20.1817 23.9887 21.9416
Pd 23.7537 16.5969 14.5107
Au 8.12948 24.1503 21.9864
Pd 19.7183 22.1397 16.0443
Au 24.2207 8.41378 18.437
Pd 16.7007 12.5827 21.2629
Au 13.9457 9.32638 4.57546
Pd 23.4747 10.0683 6.53742
Au 27.8879 17.1242 12.4719
Pd 7.48023 20.8153 12.5123
Pd 21.3859 16.6058 18.6363
Au 10.5453 25.3136 22.8541
Au 4.77979 20.1214 12.0851
Pd 27.0378 19.557 12.025
Au 6.4896 9.13895 8.72996
Pd 19.0008 12.2685 11.1963
Au 18.8786 4.44497 9.76281
Pd 16.1211 5.06644 9.22837
Au 21.179 8.35206 22.0873
Pd 12.16 23.1878 23.0024
Au 23.0141 14.3956 22.2642
Pd 9.47557 13.7242 21.0586
Au 10.0416 6.82674 17.4639
Pd 5.3097 7.91683 10.8353
Au 10.652 13.2228 14.7006
Pd 20.0594 25.684 13.1676
Au 16.7662 21.1136 21.7439
Pd 25.6234 19.3685 18.0615
Au 26.0263 22.3008 11.9464
Pd 18.4317 16.5889 12.2993
Au 12.1379 9.1742 23.4351
Pd 12.6199 9.52117 13.4271
Pd 11.5651 20.7697 24.0588
Pd 9.65926 13.1708 8.15022
Pd 25.8424 13.0263 12.8999
Pd 22.7419 8.7201 10.2245
Pd 6.61418 14.7479 21.0781
Pd 24.5478 9.06384 13.6281
Pd 16.0245 25.1637 24.0346
Pd 14.2462 17.905 19.8468
Pd 25.3685 11.9852 7.47149
Pd 23.1183 21.6329 12.4156
Pd 19.9958 6.06586 21.0346
Pd 14.0329 10.4036 11.2611
Au 25.0609 14.5275 18.0505
Au 21.7349 17.9525 3.67382
Pd 12.2348 17.2187 8.86524
Au 18.5606 15.0198 10.0132
Pd 15.2579 16.7539 24.4645
Au 8.9578 5.61952 12.3601
Pd 10.7655 22.1669 7.47051
Au 12.614 6.83863 24.5807
Pd 22.4545 25.6319 14.4387
Au 7.40038 21.6186 23.0783
Pd 13.7975 24.0328 10.5569
Au 23.7147 17.5448 9.87895
Pd 14.7758 20.3522 5.27147
Au 8.22669 19.2925 21.819
Pd 13.9134 14.1775 4.89507
Au 11.043 9.11546 5.27558
Pd 8.05292 12.403 13.2054
Au 3.35509 19.2384 16.3448
Pd 21.6746 24.0595 16.3593
Au 12.6034 19.9423 18.7247
Pd 12.3837 23.6244 12.9375
Pd 13.7564 5.26855 16.6009
Au 20.6728 26.6617 16.1491
Au 4.57201 19.4134 18.8825
Pd 20.515 21.3634 11.9027
Au 21.6289 20.7636 7.35424
Pd 5.6034 16.2317 7.39356
Au 25.5956 10.502 19.4967
Pd 22.0501 19.2702 10.9973
Au 18.6228 15.8988 19.3869
Pd 8.18625 13.9788 10.3255
Au 20.4588 26.8571 18.9999
Pd 10.794 15.2191 6.88996
Au 2.11431 11.9211 16.7831
Pd 12.315 15.7091 16.3501
Au 18.4519 14.0758 2.00565
Pd 4.3468 21.1836 14.4882
Au 26.9645 12.8359 19.0311
Pd 16.7948 12.7529 9.65871
Au 19.3968 9.49381 23.7908
Pd 17.0636 9.97539 24.9705
Au 15.7907 13.9321 2.56032
Pd 16.0037 10.052 9.43875
Pd 14.5015 21.3731 14.9614
Au 13.3311 13.9058 14.6323
Au 24.3196 24.6131 16.1562
Pd 5.29981 14.6951 9.85047
Au 27.2136 13.8005 15.5016
Pd 24.0533 18.456 20.1547
Au 12.3596 11.5002 4.31035
Pd 14.6958 9.47447 23.3905
Au 23.8761 6.36525 9.88477
Pd 5.2453 18.8633 9.78932
Au 13.2797 7.55114 6.5813
Pd 17.9757 23.3326 17.6927
Au 21.7076 11.2362 4.83704
Pd 17.8242 19.9935 5.25384
Au 15.5626 22.0989 9.82659
Pd 19.0764 14.2533 24.9048
Au 8.83976 23.8061 18.4428
Pd 22.0722 19.1563 18.1049
Au 18.1312 10.4922 19.3337
Pd 8.37781 18.3178 5.37382
Au 2.72262 14.4718 17.3932
Pd 12.5679 16.2749 24.8048
Pd 19.7298 5.84052 11.9667
Au 14.5329 24.0362 14.4354
Au 5.86196 13.0138 19.0191
Pd 15.3295 19.5119 10.79
Au 17.6834 23.3787 8.55006
Pd 15.9238 3.74123 13.3765
Au 14.526 11.6134 13.7465
Pd 11.6024 22.8371 25.7196
Au 8.26535 7.09279 22.3637
Pd 20.1151 15.9709 2.90186
Au 18.5356 7.72982 5.23877
Pd 14.9563 11.6004 3.42945
Au 9.92505 15.6005 25.5365
Pd 20.3512 8.90233 8.84908
Au 7.33926 10.8225 18.5099
Pd 14.4169 8.23295 18.8971
Au 15.5779 16.2491 5.6026
Pd 14.5144 11.9144 5.94947
Au 13.8085 25.3065 16.7759
Pd 16.281 4.95258 15.8043
Au 4.56201 10.3625 10.3182
Pd 12.2413 14.1624 26.3864
Pd 10.661 5.93379 22.8317
Au 11.9627 25.8025 11.4376
Au 6.73037 14.9948 12.2696
Pd 13.9715 3.57782 18.6537
Au 23.611 16.0554 4.90578
Pd 11.2471 18.6795 13.7957
Au 13.3222 8.9424 9.11788
Pd 9.27116 19.9105 7.29768
Au 5.96945 7.91278 15.4208
Pd 14.7173 14.5903 17.0329
Au 16.3493 24.9381 10.2938
Pd 19.7103 7.39326 18.7855
Au 17.4264 26.7634 22.2153
Pd 18.7872 21.9487 23.2981
Au 28.3256 16.2866 15.0548
Pd 7.03091 9.13051 21.0237
Au 23.6904 9.90907 16.0261
Pd 23.5242 12.9053 5.73296
Au 20.2192 12.4029 3.02846
Pd 25.1195 17.6109 12.1752
Au 15.3817 22.7758 17.1802
Pd 12.6035 19.3745 10.5438
Pd 22.224 21.6023 17.1234
Pd 10.2778 20.7959 9.71515
Pd 18.4778 12.5054 13.9023
Pd 20.2976 19.0153 5.76189
Pd 11.7715 17.5651 18.1155
Pd 24.2326 15.0889 11.7391
Pd 8.90322 7.00278 14.731
Pd 7.4929 11.4413 25.266
Pd 20.1924 22.7925 9.30825
Pd 22.452 21.527 9.76224
Pd 16.1604 23.0076 19.8864
Pd 10.5523 15.2787 9.66765
Au 19.0117 21.2733 7.24158
Au 22.97 18.4664 6.00935
Pd 18.3291 16.9474 5.63506
Au 5.66908 22.7185 12.6614
Pd 12.1657 14.1742 21.372
Au 23.5884 4.71034 12.0943
Pd 16.2852 9.97295 17.4338
Au 28.2776 11.8468 13.8777
Pd 10.2831 25.4224 13.5954
Au 8.89018 26.3223 17.7555
Pd 16.9669 10.125 22.1622
Au 21.3996 5.37047 13.9287
Pd 10.0912 19.2734 19.8321
Au 16.3247 17.7507 26.8675
Pd 21.3131 21.1868 22.7945
Au 16.2688 21.7602 6.92951
Pd 22.2769 15.279 16.3727
Au 14.0949 27.1153 18.9668
Pd 13.2564 10.4825 18.088
Au 12.7768 26.2924 14.108
Pd 4.25278 14.0593 12.3984
Pd 4.66422 12.6568 16.6251
Au 7.34676 6.27922 17.1086
Au 24.1152 23.3207 10.5306
Pd 6.33985 19.4916 14.4471
Au 5.98633 21.648 10.2232
Pd 15.3444 18.8152 22.2659
Au 10.9135 15.9182 13.901
Pd 15.0547 8.0405 25.469
Au 16.3111 3.5316 20.2224
Pd 6.12399 8.4566 18.2897
Au 8.73629 4.56189 18.6798
Pd 21.6761 22.3812 20.293
Au 23.1946 13.4667 8.33067
Pd 22.4802 7.78308 7.73648
Au 15.7505 5.6389 18.5676
Pd 6.87137 18.2636 11.9536
Au 7.12384 9.88164 11.391
Pd 18.2371 19.3785 11.6523
Au 15.8567 19.4229 24.8583
Pd 14.6035 5.35223 11.5233
Au 22.2183 7.24157 19.8177
Pd 17.3116 16.0101 3.37529
Pd 18.0804 23.6224 25.2801
Au 27.8503 11.6306 16.7788
Au 24.859 8.66032 8.46097
Pd 17.0106 22.7918 14.8216
Au 17.2439 20.5669 16.1314
Pd 15.4298 9.00607 13.1473
Au 6.04959 12.3893 11.1692
Pd 12.2824 16.3737 4.5732
Au 4.09783 17.6184 20.8372
Pd 16.8196 10.7059 14.8643
Au 12.7486 22.1163 17.1722
Pd 25.1198 22.0899 17.1274
Au 7.03038 5.24931 14.5887
Pd 14.9863 19.9994 17.4985
Au 6.547 23.5431 17.0545
Pd 20.3986 18.6525 13.0764
Au 9.40834 12.6617 18.3407
Pd 26.0704 15.5665 13.6489
Au 13.5602 16.5939 22.1955
Pd 5.08747 9.41946 13.145
Au 7.69456 24.2895 13.1149
Pd 26.2691 9.52847 17.0492
Pd 18.6935 18.5488 25.9042
Au 22.5103 13.6512 18.5471
Au 12.6234 7.9846 16.8901
Pd 13.122 13.5543 2.60004
Au 14.5915 13.0567 11.3201
Pd 20.8211 9.59046 19.7253
Au 24.6314 16.6759 22.133
Pd 13.4508 16.9337 14.2099
Au 20.5025 15.7355 23.0932
Pd 17.8786 7.77882 12.4658
Au 5.22556 12.2111 8.27809
Pd 10.8448 18.2633 25.3913
Au 15.8327 22.9473 26.6878
Pd 20.2551 14.5558 12.0684
Au 22.7826 16.5952 24.089
Pd 27.6132 18.0422 16.9117
Au 22.5823 13.0451 11.133
Pd 11.144 13.6172 24.0041
Au 23.0785 6.19024 17.372
Pd 20.9415 16.3401 5.50277
Au 16.0616 25.2917 18.5548
Pd 8.83942 9.66434 7.02649
Pd 11.5703 8.55629 19.2948
Au 16.7978 11.6155 7.16086
Au 21.8311 18.0385 15.6814
Pd 8.52987 17.7038 14.0063
Au 10.8949 26.4863 16.044
Pd 13.9203 21.6755 12.0327
Au 20.2237 11.7848 25.0518
Pd 10.5966 18.5562 22.7345
Au 24.116 24.1099 13.0526
Pd 16.0671 23.217 12.3007
Au 9.64279 22.8864 23.8775
Pd 9.27123 20.3025 14.4824
Au 18.9369 24.6771 10.8083
Pd 24.6853 20.0785 10.9067
Au 8.521 16.4175 7.34762
Pd 17.8759 8.88433 7.53284
Au 12.2655 25.7227 20.7663
Pd 7.00159 15.972 5.21388
Au 26.1289 23.0675 14.704
Pd 21.4112 11.3053 7.58796
Au 13.7763 14.1818 23.6988
Pd 24.9791 15.3819 9.14556
Pd 8.29429 8.86586 16.5962
Pd 6.23054 10.5579 16.0687
Pd 16.945 18.4829 20.089
Pd 12.6018 10.3249 6.85496
Pd 16.8494 9.9527 4.94765
Pd 9.32147 25.1497 11.2055
Pd 13.4427 4.74369 13.9065
Pd 8.93147 16.3973 11.6733
Pd 25.292 20.6202 13.7663
Pd 8.48901 9.89733 23.1327
Pd 17.2528 25.4366 13.1873
Pd 21.1944 6.26066 9.80137
Au 21.9458 9.63659 13.1245
Au 13.7401 24.0677 19.2689
Pd 14.8506 17.329 8.65335
Au 11.8714 20.3299 5.41076
Pd 22.6999 7.12848 12.2979
Au 3.23411 12.4491 19.1383
Pd 6.74497 24.4619 19.6968
Au 12.213 24.2313 8.37465
Pd 14.9335 6.45494 23.3172
Au 8.40973 14.8749 14.278
Pd 5.57004 11.9773 13.8999
Au 26.3869 17.7657 9.88578
Pd 10.1605 10.6767 13.4491
Au 7.99274 18.996 16.4944
Pd 10.8136 17.8141 6.50255
Au 5.72535 22.8656 21.5495
Pd 6.14836 13.4462 23.5567
Au 9.22725 4.44163 15.9405
Pd 7.31818 13.3335 16.5286
Au 25.3541 8.24958 11.0957
Pd 20.6414 18.4876 23.5732
Pd 10.3265 8.58396 21.6709
Au 11.1665 13.864 4.53058
Au 13.3497 25.6544 23.1962
Pd 20.3538 13.6366 15.2739
Au 12.9755 4.69116 23.0527
Pd 23.6076 15.7007 19.8994
Au 24.0123 19.7094 16.0164
Pd 12.6322 14.8705 12.0337
Au 12.2541 11.6027 26.9078
Pd 13.1269 9.73924 20.9723
Au 27.7761 12.5396 11.0781
Pd 24.5524 13.9515 15.3331
Au 14.7913 12.0395 16.5772
Pd 16.1072 17.7777 12.714
Au 9.48041 24.1295 8.81547
Pd 19.025 10.0863 13.1241
Au 12.0826 13.1913 17.3397
Pd 5.55805 17.9509 16.754
Au 17.4069 20.7253 18.7873
Pd 15.4448 10.575 19.9269
Au 10.7394 6.97801 10.355
Pd 6.96995 24.0943 10.4343
Pd 11.8021 24.0278 15.4264
Au 7.21899 12.0899 21.2051
Au 19.1305 17.4544 21.535
Pd 14.0913 12.8714 19.2081
Au 24.1444 10.6988 11.5453
Pd 10.7234 8.80156 15.2277
Au 17.2927 12.4678 25.9596
Pd 7.56432 16.2952 16.3403
Au 5.56846 14.4631 14.795
Pd 21.3071 23.2374 13.8741
Au 26.3308 10.5775 9.63259
Pd 21.0948 13.7427 6.5163
Au 14.3263 15.8671 26.9084
Pd 15.8501 6.42937 13.6806
Au 5.53443 13.8418 6.0175
Pd 21.6364 8.70933 17.3136
Au 2.7645 18.2515 11.2472
Pd 20.4404 16.531 25.5691
Au 18.7899 22.5701 20.2862
Pd 18.0466 19.3222 23.4061
Au 14.545 20.0223 8.21697
Pd 19.0478 12.9655 19.8784
Pd 19.0483 25.5043 23.8299
Au 15.1315 9.55087 6.97656
Au 21.5643 18.2395 8.29183
Pd 19.2245 20.1261 21.1658
Au 9.0408 20.1519 24.5459
Pd 22.8196 15.9514 7.41633
Au 2.5334 16.0237 13.1434
Pd 3.33141 12.7847 10.1572
Au 21.6044 23.9142 11.3635
Pd 18.4001 14.6129 21.8945
Au 26.048 14.8086 20.6554
Pd 25.8646 16.2086 16.2321
Au 18.0483 16.6909 24.1474
Pd 21.1294 10.8315 10.5744
Au 15.3177 27.049 14.5564
Pd 14.7976 10.6696 26.1409
Au 27.0596 13.6954 8.62701
Pd 7.30984 19.3495 19.2008
Au 23.8041 20.9826 19.1661
Pd 11.8848 21.2909 14.6883
Au 22.6603 7.57117 14.9967
Pd 13.359 14.793 9.42493
Pd 10.7497 4.13632 13.5982
Au 26.1278 16.9324 19.0815
Au 15.2233 25.9237 21.1371
Pd 3.61359 16.2991 15.5735
Au 13.1949 18.7047 23.9383
Pd 11.1579 23.3095 10.6716
Au 25.9447 11.1874 14.8887
Pd 4.51899 15.4596 22.5146
Au 15.8872 7.43514 5.52625
Pd 22.4891 14.3311 13.6686
Au 23.8603 17.2557 17.5402
Pd 21.5005 20.6147 14.6214
Au 8.05945 21.8589 20.3928
Pd 9.05887 17.3014 18.3848
Au 8.79479 8.47108 19.1911
Pd 4.56116 12.8911 21.5107
Au 7.63413 14.1692 25.5974
Pd 13.3424 15.6916 6.97241
Au 20.6052 16.2081 14.2276
Pd 21.9303 17.15 21.3774
Au 16.1082 22.2984 24.1003
Pd 14.7653 13.3485 26.0468
Pd 13.4047 22.0967 6.84489
Pd 17.6304 11.9802 3.41583
Pd 11.7178 20.3591 26.7459
Pd 17.5407 2.70217 15.0704
Pd 7.33066 22.1545 14.9038
Pd 25.0924 12.0271 17.2768
Pd 18.4252 26.1716 17.5441
Pd 16.8889 15.2139 26.2373
Pd 21.7972 4.01307 16.2653
Pd 17.1978 5.40527 11.6111
Pd 14.487 5.24735 20.9286
Pd 10.1934 11.6704 5.94131
Au 18.847 23.2469 12.9953
Au 7.78215 19.7526 9.82667
Pd 17.2247 20.1699 8.95885
Au 14.4036 17.3025 17.2305
Pd 7.33094 11.8249 6.47087
Au 22.6386 2.98592 13.8498
Pd 20.4128 24.159 18.6036
Au 20.0285 15.9317 7.95711
Pd 18.8236 18.3663 7.88089
Au 10.9964 8.12907 7.84795
Pd 16.5031 25.1245 15.9202
Au 8.01924 22.044 8.45401
Pd 28.4975 18.9287 14.3786
Au 16.1316 18.3516 3.996
Pd 23.323 23.6027 18.5703
Au 6.44813 19.1876 23.9065
Pd 4.18027 10.2847 17.7464
Au 2.49232 15.3084 10.5342
Pd 14.6676 25.7188 12.3166
Au 20.5755 10.6012 15.3498
Pd 20.5812 9.16407 6.20922
Pd 20.0579 3.14198 14.3737
Au 19.1741 11.6375 5.77365
Au 19.127 14.308 4.71201
Pd 13.5538 7.30097 14.4551
Au 12.3094 13.0713 7.09965
Pd 12.9612 11.6174 24.4103
Au 11.7877 12.7817 10.0586
Pd 8.05439 21.3615 17.671
Au 23.2273 18.9623 22.8965
Pd 20.5447 13.1124 22.6924
Au 13.2783 15.4544 19.1687
Pd 16.6211 12.8641 18.6062
Au 20.2088 20.6367 25.1376
Pd 24.3803 12.7553 20.2655
Au 3.61456 10.553 15.1085
Pd 26.7065 10.3378 12.3274
Au 18.3517 4.92168 19.1574
Pd 18.35 25.2178 20.0742
Au 14.7179 2.83891 15.7021
Pd 10.7378 15.9456 22.8868
Au 1.67058 13.5346 12.3259
Pd 20.0044 26.6989 21.5634
Pd 10.7808 10.8215 8.58204
Au 23.0334 10.8655 18.531
Au 7.71489 11.4759 9.01781
Pd 17.3795 23.9687 22.2175
Au 13.5582 18.2322 6.28505
Pd 15.5613 11.9247 23.84
Au 5.01825 10.5906 20.2262
Pd 22.6391 26.0131 17.8302
Au 18.9128 9.26842 16.9715
Pd 21.7057 19.6668 20.6407
Au 9.47357 11.5357 11.0038
Pd 11.4905 17.0627 20.6245
Au 17.5576 5.99955 7.1656
Pd 20.9647 12.1204 13.0728
Au 25.1842 7.37016 15.8986
Pd 18.4543 5.42006 14.296
Au 13.2563 6.23142 9.19341
Pd 20.4812 11.5615 17.9723
Au 3.32197 11.4499 12.5415
Pd 14.3531 9.59999 15.5845
Au 23.5311 11.8268 13.8487
Pd 12.8719 21.786 9.4303
Pd 12.1904 12.1337 12.6018
Au 18.9905 18.2919 3.48912
Au 3.62381 14.3957 7.88624
Pd 23.5265 10.9317 9.04242
Au 18.2594 9.62042 10.5668
Pd 13.6883 19.3223 13.071
Au 6.80146 7.27463 12.9078
Pd 17.9893 6.53019 16.9617
Au 16.6272 3.12157 17.6565
Pd 10.2453 21.1561 21.8304
Au 13.7002 2.8443 12.1498
Pd 18.2512 15.1464 14.4918
Au 10.5433 10.2911 17.612
Pd 20.9256 14.7633 20.5236
Au 3.39627 17.0772 18.2167
Pd 22.0827 25.1973 20.4813
Au 26.9142 20.4993 15.942
Pd 12.0296 4.89488 11.3921
Au 10.6935 18.509 3.93719
Pd 14.6517 23.5565 22.0746
Au 14.5102 16.2106 3.08074
Pd 19.5137 16.6848 16.6623
Pd 19.4905 18.4878 18.9887
Au 10.2457 6.33861 20.154
Au 25.1757 12.9061 10.2517
Pd 9.28172 8.40275 12.2724
Au 13.8664 21.1328 25.4116
Pd 18.8446 20.7056 13.9448
Au 13.2944 27.8221 16.4255
Pd 18.0464 21.941 10.8508
Au 19.1371 24.6167 15.3937
Pd 8.7566 22.4355 11.0854
Au 16.0508 27.6183 17.0583
Pd 20.5679 13.3393 9.24311
Au 9.82001 12.8861 26.2677
Pd 21.9557 15.4713 9.92962
Au 11.7644 16.6634 27.3089
Pd 20.7491 23.3433 24.4654
Au 14.9289 23.9614 8.06504
Pd 16.3046 20.5976 13.0958
Au 23.9262 5.08242 14.9325
Pd 20.9826 5.04591 18.6567
Au 5.6312 20.7691 16.725
Pd 6.2157 16.9535 19.3081
