665
Atoms. Timestep: 20267
Pd 7.92637 8.42197 8.0621
Pd 5.24705 8.7086 12.2689
Pd 3.32163 9.1246 16.6451
Pd 3.50115 8.41549 19.2268
Pd 6.68685 8.78443 22.6132
Au 8.69641 9.56258 5.70146
Au 5.89096 9.67703 9.71476
Pd 6.70393 10.7638 7.2681
Au 3.56089 10.0659 14.1055
Pd 4.14821 11.0754 11.5123
Au 3.30654 10.9574 18.6444
Pd 3.47196 11.9151 16.1508
Au 4.47554 9.7762 21.3767
Pd 4.5627 12.3374 20.5411
Au 7.74164 10.1456 24.7768
Pd 5.59735 11.1852 23.5196
Au 7.45324 11.8945 4.86247
Au 4.83441 12.0828 8.92939
Pd 5.61968 13.1825 6.45391
Au 3.79532 12.8692 13.6076
Pd 4.40622 13.8277 11.0806
Au 3.44105 13.6723 18.3108
Pd 3.73062 14.6977 15.8192
Au 5.70883 13.7184 22.5403
Pd 4.7153 15.1029 20.2189
Au 6.6999 12.5348 25.5917
Pd 6.94974 15.0166 24.5138
Au 8.84108 14.9617 3.539
Au 5.05544 14.8259 8.56177
Pd 5.95946 15.9802 6.12635
Au 4.10316 15.6381 13.2892
Pd 4.64271 16.5769 10.7819
Au 3.67927 16.4381 18.0047
Pd 4.01776 17.468 15.5033
Au 5.97576 16.4907 22.161
Pd 4.9904 17.8713 19.9361
Au 8.06842 16.3176 26.5197
Pd 7.35646 17.7395 24.0667
Au 6.92947 17.1378 3.79113
Au 5.08187 17.5274 8.25126
Pd 5.57659 18.5747 5.74162
Au 4.37438 18.4019 12.9562
Pd 4.88867 19.3459 10.4049
Au 3.98028 19.2165 17.6882
Pd 4.36686 20.229 15.1737
Au 6.36367 19.2882 21.9033
Pd 5.2907 20.5789 19.6637
Au 8.75776 18.86 26.0134
Pd 7.90141 20.5211 23.8369
Au 7.68377 21.0472 3.27832
Au 5.39888 20.2311 7.89028
Pd 7.96162 19.5054 5.28574
Au 4.7166 21.1295 12.6238
Pd 5.4634 22.0249 10.1364
Au 4.34969 21.9189 17.3596
Pd 5.02703 22.8886 14.8505
Au 6.78464 22.0189 21.667
Pd 5.57079 23.1814 19.4182
Au 9.71449 21.4555 25.678
Pd 8.63144 23.1089 23.7491
Pd 9.98954 7.2843 6.54938
Pd 7.16979 7.36431 10.4769
Pd 9.21743 6.1154 8.87393
Pd 5.19984 7.99263 14.836
Pd 7.23482 6.95995 13.1343
Pd 5.42279 7.61863 17.5191
Pd 7.42049 6.68711 15.8733
Pd 5.69068 7.49343 20.3713
Pd 7.63018 6.52737 18.7043
Pd 8.92056 7.75942 23.7294
Pd 7.90374 6.49882 21.5133
Pd 11.3172 10.448 5.41705
Au 12.568 8.2052 6.22671
Au 10.4642 9.52291 7.82568
Pd 8.4251 10.7316 9.3972
Au 9.62666 8.36206 10.2374
Pd 13.0183 10.5978 7.62246
Au 7.65905 9.63249 11.8519
Pd 5.88247 11.0733 13.5874
Au 7.61621 9.17202 14.5695
Pd 10.1479 10.7189 11.6486
Au 5.60359 10.2385 16.2307
Pd 5.75103 12.2523 18.0681
Au 7.79418 8.93276 17.3639
Pd 8.05577 11.4552 16.0243
Au 5.74736 9.82557 19.0465
Pd 6.90333 11.1527 21.2591
Au 8.03069 8.82084 20.2239
Pd 8.23037 11.2004 18.8753
Au 9.14782 10.1151 22.5046
Pd 10.1696 11.3752 24.7486
Au 11.3337 8.98545 23.7908
Pd 11.6198 11.3614 22.4221
Pd 10.0722 12.668 4.48497
Au 13.0486 12.2851 4.27509
Au 9.2457 11.8277 6.94906
Pd 7.3008 13.1249 8.54221
Au 10.9873 11.8599 9.19166
Pd 11.8334 12.8168 6.70077
Au 6.54258 12.0745 11.0198
Pd 6.28868 13.9763 13.0533
Au 8.28158 12.0542 13.2653
Pd 9.02067 13.1271 10.7317
Au 5.85662 13.0427 15.5264
Pd 5.85331 14.8766 17.7003
Au 8.34516 13.5782 17.7025
Pd 8.34487 14.1659 15.0427
Au 7.01033 13.6035 20.1179
Pd 8.26767 14.9648 22.191
Au 9.41185 12.5245 21.1224
Pd 9.59612 14.9351 19.8279
Au 8.04634 12.5431 23.4395
Pd 9.10296 13.802 25.7197
Au 12.7608 12.4488 24.7448
Pd 10.5649 13.7372 23.4329
Pd 10.7135 16.8064 3.54353
Au 11.8432 14.4166 3.29578
Au 8.09897 14.1944 6.05988
Pd 7.64308 15.9007 8.153
Au 9.81728 14.2122 8.24611
Pd 10.6545 15.0214 5.70547
Au 6.88929 14.937 10.5891
Pd 6.59632 16.7553 12.7079
Au 8.85807 15.1321 12.5722
Pd 9.53392 16.1488 10.1329
Au 6.16107 15.8232 15.1927
Pd 6.09696 17.6124 17.3932
Au 8.38973 16.135 17.0844
Pd 8.74798 17.0185 14.5982
Au 7.17557 16.2686 19.6474
Pd 8.51668 17.6024 21.5423
Au 10.8297 16.1775 22.0539
Pd 9.75198 17.4837 18.9719
Au 9.53601 16.1268 24.4101
Pd 10.665 16.9492 26.7472
Au 11.7508 14.7522 25.7718
Pd 12.1106 17.1283 24.4039
Pd 9.13849 18.7869 3.13012
Au 12.09 19.1121 3.40799
Au 6.355 14.3507 4.07688
Pd 7.54015 18.4877 7.65845
Au 10.3331 17.206 7.71291
Pd 10.5379 19.1457 5.62153
Au 7.07505 17.6816 10.1914
Pd 6.81878 19.4947 12.2769
Au 9.11736 17.9573 12.1235
Pd 9.56066 18.898 9.64006
Au 6.46456 18.5504 14.8475
Pd 6.42984 20.3768 17.0652
Au 8.64289 18.8684 16.7319
Pd 9.03902 19.7502 14.1877
Au 7.46468 19.0035 19.3453
Pd 8.88587 20.3366 21.2986
Au 11.1154 18.7264 20.9388
Pd 9.98638 20.2182 18.6594
Au 9.89563 18.733 23.5462
Pd 11.3644 19.2877 25.7904
Au 13.1854 19.6179 27.6824
Pd 12.4502 19.5477 23.1809
Pd 6.10866 21.2475 5.50108
Au 10.3239 21.1536 3.78612
Au 8.69959 16.9174 5.60044
Pd 7.04787 22.3193 7.72773
Au 9.11612 20.6231 7.43499
Pd 8.60939 22.3069 5.40388
Au 7.42433 20.4569 9.71632
Pd 6.55175 23.0428 12.3803
Au 8.6247 21.4288 12.0183
Pd 7.99932 23.2202 10.0095
Au 6.86343 21.2136 14.4335
Pd 6.69921 23.1737 16.9645
Au 8.87494 21.6886 16.4011
Pd 8.05968 23.5504 14.5243
Au 7.72907 21.731 19.116
Pd 9.23538 23.0674 21.2223
Au 11.3814 21.5023 20.6987
Pd 7.93006 24.4325 19.3434
Au 10.5735 21.4549 23.2348
Pd 11.2751 23.6615 24.5888
Au 12.5481 21.6088 25.6251
Pd 11.7924 23.9163 22.048
Pd 11.2679 5.01358 7.38451
Pd 9.28012 5.87339 11.5659
Pd 11.3355 4.77138 10.0578
Pd 9.45254 5.68267 14.3029
Pd 11.5062 4.6263 12.7824
Pd 9.63475 5.53631 17.0934
Pd 11.6795 4.50774 15.5487
Pd 9.85246 5.44086 19.9068
Pd 11.8607 4.4262 18.346
Pd 10.1086 5.4802 22.6158
Pd 12.1149 4.42679 21.1397
Pd 14.2985 10.1612 5.25174
Au 13.7699 5.95518 7.07958
Au 11.7023 7.2001 8.67407
Pd 12.1509 9.51787 10.0902
Au 11.7633 7.03786 11.4553
Pd 14.1982 8.34415 8.49278
Au 9.69988 8.12873 12.9977
Pd 10.1604 10.4416 14.4324
Au 11.9113 6.9035 14.2225
Pd 12.2273 9.38163 12.8838
Au 9.84591 7.94761 15.7737
Pd 10.2836 10.2688 17.2332
Au 12.077 6.78904 17.0091
Pd 12.3488 9.24568 15.667
Au 10.0363 7.81609 18.5832
Pd 10.5078 10.17 20.0728
Au 12.2704 6.7223 19.8397
Pd 12.5155 9.1346 18.4743
Au 10.2913 7.78922 21.4219
Pd 13.836 10.1456 23.6538
Au 12.4614 6.65832 22.7388
Pd 12.7166 9.03737 21.3546
Pd 14.7533 14.2627 3.28658
Au 16.0225 12.1375 4.22445
Au 14.6899 12.5877 6.56391
Pd 13.4811 13.0599 9.01254
Au 14.6317 10.768 9.92226
Pd 16.3135 14.6413 5.56695
Au 12.6177 11.9042 11.4881
Pd 10.6699 13.1263 13.0615
Au 12.6521 11.7263 14.3112
Pd 15.0432 13.2862 11.3317
Au 10.5331 12.7398 15.8879
Pd 10.9278 14.9957 17.4513
Au 12.7745 11.5796 17.115
Pd 13.0501 14.0407 15.7799
Au 10.7365 12.5833 18.7175
Pd 11.8871 13.7995 21.0204
Au 12.9568 11.4638 19.9614
Pd 13.2189 13.9225 18.5599
Au 14.1073 12.5594 22.3139
Pd 14.5384 14.5361 25.6238
Au 15.5738 12.0932 24.6075
Pd 15.8736 14.5053 23.2166
Pd 13.464 16.6448 3.30649
Au 16.2466 16.5171 3.31159
Au 13.4374 14.7451 5.5366
Pd 12.2493 15.2798 8.07394
Au 15.0419 15.1215 7.95398
Pd 14.9395 17.0084 5.61039
Au 11.4674 14.2533 10.5654
Pd 11.3911 16.3346 12.2947
Au 13.0823 14.3048 12.9457
Pd 13.7782 15.5949 10.4651
Au 10.8394 15.3024 14.7288
Pd 10.972 17.4665 16.4367
Au 13.44 16.4235 17.2327
Pd 13.2805 16.5214 14.5267
Au 12.1283 16.2454 19.6561
Pd 13.3645 17.3231 21.9373
Au 14.3912 15.0214 20.8796
Pd 14.6442 17.5278 19.5516
Au 13.089 14.8726 23.3513
Pd 13.5646 17.0491 26.6537
Au 16.3662 16.4241 26.5206
Pd 14.8936 16.883 24.246
Pd 12.9841 21.633 4.15505
Au 14.7863 19.0078 3.57131
Au 12.2396 17.1657 5.67291
Pd 11.7936 19.6497 8.18954
Au 13.611 17.5295 7.97416
Pd 13.3934 19.5696 5.84972
Au 11.9958 17.742 10.1361
Pd 10.9652 19.9319 11.8294
Au 13.5378 18.1943 12.4568
Pd 13.3063 20.2987 10.5935
Au 11.334 18.4219 14.0094
Pd 11.2196 20.2666 16.0318
Au 13.6029 18.9607 15.7345
Pd 13.0803 20.7239 13.5292
Au 12.2936 18.726 18.3974
Pd 13.6158 19.9904 20.5847
Au 15.1576 19.2762 22.6877
Pd 12.4759 21.4361 18.2085
Au 14.114 19.3266 25.2594
Pd 14.9944 21.4761 26.7718
Au 15.7423 18.8967 27.4476
Pd 15.725 21.4106 24.2139
Pd 11.086 23.5922 4.85256
Au 13.8038 24.0187 5.14224
Au 11.4557 21.6299 6.40463
Pd 9.6447 23.3122 7.59949
Au 12.5954 22.2592 8.89709
Pd 12.1556 24.2499 7.26721
Au 10.1216 21.5877 9.71189
Pd 9.3592 23.9808 12.1788
Au 11.7818 22.584 11.6054
Pd 10.6539 24.282 9.80869
Au 10.4331 22.0636 13.9382
Pd 9.01903 24.5566 16.8063
Au 11.3562 23.0349 16.258
Pd 10.4377 24.8666 14.4891
Au 10.0844 22.9645 18.6401
Pd 9.78481 26.2484 18.7225
Au 11.7844 24.707 19.4787
Pd 11.5444 25.6557 16.8623
Au 13.3769 21.9912 22.952
Pd 13.1207 25.5881 23.8202
Au 14.2776 23.5979 25.0087
Pd 12.6642 26.4274 21.3992
Pd 13.3768 3.79343 8.56932
Pd 13.5789 3.64294 11.2453
Pd 15.8622 4.11141 9.7302
Pd 13.7508 3.53751 13.9952
Pd 16.0291 3.97497 12.4725
Pd 13.9201 3.4494 16.7715
Pd 16.1912 3.87424 15.2473
Pd 14.1011 3.39378 19.5162
Pd 16.3642 3.79712 18.024
Pd 14.6199 5.28981 23.471
Pd 16.5078 3.80003 20.7922
Pd 15.5112 7.93488 6.11434
Au 16.1612 6.4221 8.31614
Au 13.8512 5.97703 9.88821
Pd 14.2965 8.30771 11.3189
Au 16.3187 6.36836 11.1328
Pd 16.5902 8.8299 9.80922
Au 14.0002 5.8576 12.6592
Pd 14.432 8.20411 14.0941
Au 16.4681 6.25906 13.9131
Pd 16.7404 8.74425 12.592
Au 14.1594 5.75525 15.4317
Pd 14.5832 8.10339 16.8797
Au 16.6292 6.16183 16.6966
Pd 16.8884 8.62993 15.3642
Au 14.3322 5.68227 18.2095
Pd 14.7437 8.00593 19.7117
Au 16.7942 6.09578 19.5116
Pd 17.0289 8.52323 18.1629
Au 14.51 5.58845 20.9689
Pd 14.911 7.83203 22.5632
Au 16.9468 5.98998 22.3799
Pd 17.1564 8.40933 21.0303
Pd 17.6592 14.2031 3.34117
Au 17.2033 9.9191 5.12548
Au 15.8854 10.3437 7.49783
Pd 16.2899 12.8834 8.93255
Au 17.0011 11.2939 11.2336
Pd 17.551 12.4329 6.55828
Au 14.7297 10.6714 12.7287
Pd 15.1521 13.0574 14.145
Au 17.1579 11.1316 14.0196
Pd 17.3673 13.7323 12.6545
Au 14.8538 10.5469 15.5255
Pd 15.2732 12.9042 16.9496
Au 17.298 10.9873 16.8194
Pd 17.5616 13.4834 15.4588
Au 15.0007 10.4238 18.3383
Pd 15.4292 12.7393 19.7886
Au 17.4369 10.8657 19.6585
Pd 17.7055 13.3288 18.2726
Au 15.1669 10.2698 21.2205
Pd 17.3332 13.9875 25.4662
Au 16.6412 9.70228 23.5194
Pd 16.8978 12.1735 22.1406
Pd 17.4939 18.8392 3.70249
Au 19.0539 16.5088 3.45661
Au 17.7419 16.9816 5.72223
Pd 16.4228 17.486 8.04425
Au 17.944 15.0445 7.98763
Pd 18.4862 19.2334 7.34358
Au 16.645 15.457 10.3407
Pd 15.3687 15.8173 12.7381
Au 17.7812 16.0463 14.1086
Pd 17.266 17.8054 11.8964
Au 15.5281 15.3838 15.5558
Pd 15.9444 17.6742 17.0388
Au 17.9879 15.7974 16.9366
Pd 18.2767 18.2958 15.6343
Au 15.6929 15.2272 18.4136
Pd 16.1861 16.9227 21.7871
Au 17.2247 14.6412 20.7353
Pd 17.54 17.12 19.3886
Au 17.6776 16.3919 24.1242
Pd 18.4611 18.286 26.9475
Au 19.1638 15.7578 26.4011
Pd 20.5148 15.8061 24.0583
Pd 15.6623 21.4654 4.48083
Au 18.289 20.9813 5.1108
Au 16.1435 19.3232 5.96217
Pd 14.6894 19.8996 8.28371
Au 16.994 19.7951 9.69068
Pd 16.8487 21.4548 7.3527
Au 15.0574 17.9315 10.3149
Pd 15.5302 20.0888 12.0427
Au 16.3011 20.2529 15.9419
Pd 17.3157 22.159 11.2733
Au 15.7599 18.1287 14.2074
Pd 13.9557 21.7411 15.9554
Au 16.4581 19.503 20.2181
Pd 15.7915 21.9418 13.967
Au 14.7436 19.8627 18.0942
Pd 13.6665 22.8452 20.1424
Au 17.9064 18.9463 22.4407
Pd 15.7109 22.2435 18.4002
Au 16.7926 18.8875 24.9681
Pd 17.5854 20.8917 26.6525
Au 21.1557 17.6215 26.4286
Pd 16.892 23.3483 25.6142
Pd 14.8 24.4097 7.81325
Au 16.4522 23.6044 5.86713
Au 14.2161 22.0314 6.69778
Pd 13.2747 24.5773 10.0532
Au 15.3041 22.2743 9.43123
Pd 17.1534 26.7108 12.3249
Au 14.4714 22.83 11.8575
Pd 11.7352 25.2463 12.184
Au 16.6817 24.3018 13.063
Pd 14.3775 25.5572 12.5005
Au 12.8413 23.4842 13.9822
Pd 12.8757 26.1142 14.593
Au 15.0088 24.4192 15.2064
Pd 14.0977 26.6024 16.918
Au 13.5841 23.9321 17.5111
Pd 9.96215 25.6004 21.222
Au 14.4068 25.4715 19.626
Pd 12.3707 27.2292 18.8927
Au 14.6652 24.2807 22.1733
Pd 16.0232 25.5105 24.0408
Au 19.4898 22.8694 25.8217
Pd 15.4152 26.7893 21.6578
Pd 18.1776 4.72241 8.26304
Pd 18.3215 4.51659 10.985
Pd 20.5741 5.14053 9.51536
Pd 18.4756 4.40059 13.7391
Pd 20.7534 4.96328 12.2575
Pd 18.6398 4.30394 16.5007
Pd 20.92 4.85429 15.0095
Pd 18.7832 4.22802 19.2631
Pd 21.055 4.76795 17.7902
Pd 18.9193 4.2811 21.9538
Pd 21.1766 4.77634 20.536
Pd 17.9109 8.50672 7.4306
Au 17.6086 6.23369 6.07183
Au 18.5986 6.95943 9.62345
Pd 19.0056 9.32397 11.0825
Au 21.0359 7.41224 10.8833
Pd 20.3236 8.95065 8.66018
Au 18.7606 6.81428 12.4046
Pd 19.1743 9.19083 13.861
Au 21.2041 7.26736 13.6753
Pd 21.454 9.73684 12.3407
Au 18.9135 6.70138 15.1805
Pd 19.3182 9.07777 16.6428
Au 21.3395 7.16488 16.468
Pd 21.611 9.62995 15.1376
Au 19.0628 6.61171 17.9717
Pd 19.4374 9.0073 19.4539
Au 21.4794 7.12374 19.2773
Pd 21.7407 9.56323 17.9496
Au 19.1865 6.59564 20.7757
Pd 18.7479 7.86605 23.2289
Au 20.7526 6.06225 22.9084
Pd 20.9885 8.48614 21.693
Pd 18.8913 12.0239 4.27299
Au 19.5923 10.5429 6.47601
Au 18.2791 10.9174 8.84504
Pd 18.6566 13.3767 10.2514
Au 20.6971 11.3675 10.1119
Pd 19.9743 12.9745 7.86113
Au 19.4003 11.7208 12.5051
Pd 19.806 14.0458 13.9672
Au 21.8662 12.0683 13.7622
Pd 21.1571 13.6844 11.5635
Au 19.5915 11.5519 15.3092
Pd 20.004 13.8835 16.7835
Au 22.0345 11.9768 16.6177
Pd 22.3161 14.35 15.2403
Au 19.722 11.4542 18.1233
Pd 19.2211 12.7636 20.5918
Au 21.2538 10.9336 20.3907
Pd 21.5792 13.3312 19.0525
Au 18.926 10.2994 21.9666
Pd 18.3743 11.5819 24.3657
Au 20.4935 9.73442 24.1639
Pd 20.71 12.184 22.8718
Pd 19.8382 18.6808 5.05386
Au 20.4447 14.1644 3.43808
Au 19.2306 14.5781 5.66424
Pd 18.663 17.4292 9.55432
Au 20.4871 15.2737 9.36203
Pd 20.0447 16.9271 7.20069
Au 19.1259 15.6934 11.7296
Pd 19.6661 17.9958 13.2996
Au 21.6527 15.9513 13.0812
Pd 21.0622 17.5833 10.9512
Au 20.2996 16.3278 15.4609
Pd 17.8819 19.5183 18.0355
Au 19.9156 17.6055 17.8997
Pd 20.9947 19.0141 15.6937
Au 19.5454 15.1884 19.2234
Pd 19.0846 16.5441 21.6888
Au 21.0502 14.6247 21.5308
Pd 21.5947 16.8343 20.0182
Au 18.6778 14.0368 23.06
Pd 21.9078 15.0408 26.2897
Au 20.1189 13.3421 25.3545
Pd 21.4807 17.7982 22.4942
Pd 19.0334 23.0319 6.64022
Au 20.5845 20.8917 6.6385
Au 20.7416 19.2574 8.81659
Pd 18.6544 22.6578 13.6676
Au 19.2226 19.7641 11.1879
Pd 20.1087 22.423 11.2819
Au 17.7924 20.0634 13.5309
Pd 17.1757 22.8635 16.1789
Au 22.3295 18.6565 13.2901
Pd 20.5094 20.7165 13.5153
Au 19.0736 20.9884 15.9444
Pd 18.4412 22.0735 18.6243
Au 20.5696 20.302 18.2028
Pd 23.6774 19.7172 15.6519
Au 19.6146 18.9529 20.3562
Pd 15.7082 21.7183 21.4137
Au 20.5852 20.3156 22.7612
Pd 18.4076 21.3755 21.2326
Au 19.5868 18.329 24.439
Pd 20.2091 20.2797 26.0875
Au 22.362 19.3412 24.6431
Pd 18.3744 21.0722 24.1336
Pd 17.4208 23.804 8.56411
Au 20.1601 24.0191 8.93683
Au 19.0321 21.5335 8.95623
Pd 20.5723 26.2687 15.3163
Au 18.4716 24.6598 10.9063
Pd 19.3 25.3126 13.3151
Au 15.8817 24.9281 10.4133
Pd 18.2985 27.6998 14.636
Au 17.7364 25.4118 15.513
Pd 19.1143 27.1446 17.3183
Au 15.6151 26.9525 14.503
Pd 16.5857 27.5519 16.9158
Au 21.0539 22.9849 18.1662
Pd 19.8681 26.4095 19.8678
Au 16.1392 24.9631 17.6574
Pd 14.9651 27.9356 19.1205
Au 16.7127 24.0167 20.2155
Pd 18.7596 24.669 18.0712
Au 17.2322 23.3607 22.9089
Pd 18.6974 25.0461 24.3844
Au 21.8236 21.9748 24.6909
Pd 17.9169 25.8295 21.926
Pd 19.9476 6.61558 7.26718
Pd 22.9633 5.59174 10.7665
Pd 21.6254 8.60657 6.31345
Pd 23.1839 5.44919 13.546
Pd 25.847 8.17996 13.4204
Pd 23.3103 5.32085 16.3163
Pd 26.0479 11.762 17.1188
Pd 23.4433 5.32358 19.0571
Pd 25.5056 5.95283 14.9156
Pd 23.0096 6.60372 21.4907
Pd 25.2059 7.18363 19.9823
Pd 19.2515 8.19243 5.12771
Au 20.8999 10.1995 4.23381
Au 22.3341 7.00819 8.46023
Pd 22.7066 9.4064 9.91717
Au 24.6064 7.48951 9.72049
Pd 23.9564 9.07753 7.58672
Au 23.5094 7.77408 12.1619
Pd 23.9043 10.1144 13.5673
Au 27.3968 10.1399 12.4247
Pd 25.1468 9.71258 11.1121
Au 23.634 7.75521 14.9804
Pd 26.3208 10.4377 14.8176
Au 25.648 5.90243 17.5882
Pd 25.6357 12.0664 12.6802
Au 23.7614 7.70125 17.764
Pd 24.0498 10.0704 16.4339
Au 26.0645 8.20893 16.3038
Pd 24.0553 13.7114 17.3544
Au 23.3122 9.04963 20.2191
Pd 22.5208 7.96901 23.8164
Au 24.7851 8.50847 22.408
Pd 25.5854 9.57655 18.729
Pd 21.3148 12.5968 5.47993
Au 23.2115 10.6171 5.44294
Au 22.0023 11.0016 7.73046
Pd 22.516 13.2937 9.18577
Au 24.5527 11.3504 8.8979
Pd 23.7454 12.8972 6.79909
Au 23.2342 11.7044 11.3361
Pd 23.6807 13.9859 12.861
Au 26.79 11.6337 10.3482
Pd 25.036 13.6092 10.4787
Au 24.3559 12.3964 15.0321
Pd 21.9851 15.6384 17.6232
Au 27.0018 13.1117 14.8636
Pd 25.0139 15.0693 15.1235
Au 23.6373 11.4569 18.875
Pd 23.1416 12.8161 21.3404
Au 25.1665 10.9321 21.1961
Pd 25.7646 12.9682 19.4298
Au 22.7778 10.4012 22.6186
Pd 22.248 11.5886 25.0651
Au 24.2492 9.84398 24.6789
Pd 24.6105 12.2633 23.5943
Pd 22.0987 18.678 6.49404
Au 21.3555 16.387 4.86327
Au 21.867 14.8255 6.97455
Pd 22.4553 17.0883 8.60279
Au 24.4449 15.1007 8.3211
Pd 23.718 16.6139 6.28948
Au 23.0648 15.5372 10.7061
Pd 26.3595 14.6675 12.737
Au 27.5725 15.8021 15.0454
Pd 25.7202 16.2578 10.6165
Au 23.0398 17.0302 15.4045
Pd 24.6871 16.3924 17.5327
Au 26.7244 14.4415 17.2322
Pd 25.7393 17.7963 15.3008
Au 23.7322 14.8822 19.6934
Pd 23.4053 15.8966 22.0849
Au 25.5415 14.0716 21.7786
Pd 26.3389 15.6433 19.6093
Au 22.5189 14.0098 23.8234
Pd 23.0402 16.7795 24.5948
Au 23.9688 13.4176 25.9175
Pd 25.0048 15.0779 24.1295
Pd 21.7502 21.9182 8.94554
Au 23.4372 19.8303 8.6676
Au 21.9467 20.3261 11.1209
Pd 23.1354 21.3703 13.4603
Au 25.0845 17.755 8.48498
Pd 24.5802 20.8985 11.0625
Au 23.765 18.2366 10.8452
Pd 24.9061 19.2691 13.2143
Au 26.9911 17.2735 12.8792
Pd 26.3307 18.9043 10.8881
Au 26.2986 20.4562 15.6727
Pd 23.1446 21.0089 18.1287
Au 27.2569 17.1377 17.4544
Pd 24.372 16.6248 12.9884
Au 22.6509 18.3289 17.8732
Pd 21.1373 21.8852 20.6242
Au 25.9857 16.7166 22.0432
Pd 24.2752 17.5372 20.0039
Au 22.3778 19.5013 20.4329
Pd 23.2153 21.0242 22.5182
Au 24.1354 18.5237 22.5934
Pd 26.8124 18.2478 19.8983
Pd 21.0827 24.9283 11.307
Au 22.8305 22.9343 11.2414
Au 21.3633 23.4385 13.505
Pd 21.344 25.584 17.7322
Au 25.7219 21.8218 13.4214
Pd 24.3643 22.3244 15.7735
Au 19.8856 23.7354 15.8208
Pd 23.5954 23.724 17.9815
Au 27.4216 19.8096 13.3302
Pd 22.5191 24.3207 15.6769
Au 25.3279 19.0954 17.8249
Pd 25.5984 21.7527 18.1219
Au 24.9979 20.1762 20.3629
Pd 21.7425 21.6923 15.836
Au 19.37 23.905 20.5732
Pd 17.2363 26.6361 19.4467
Au 22.5001 23.5992 22.5244
Pd 23.7284 22.5054 20.2936
Au 20.5929 25.5763 22.3603
Pd 19.9199 22.9813 23.0257
Au 21.2912 24.5768 24.7392
Pd 21.9675 24.6094 20.1311
