665
Atoms. Timestep: 20443
Pd 26.7779 8.13888 17.7085
Pd 16.9626 10.9955 22.6812
Pd 4.99263 13.5769 15.0756
Pd 4.20738 18.1714 17.4241
Pd 22.2208 20.0266 14.7443
Au 19.6002 20.7795 24.9319
Au 16.9122 19.0527 3.30408
Pd 8.88652 17.2751 16.0965
Au 3.49255 11.1704 16.0405
Pd 9.35533 16.0197 18.459
Au 10.2607 9.26359 20.2822
Pd 13.5457 8.51713 6.41767
Au 20.7497 4.48539 13.8784
Pd 17.4363 20.4521 20.4376
Au 10.5774 5.71079 9.86747
Pd 21.9497 5.18395 21.5763
Au 17.3798 8.5017 26.16
Au 16.0486 2.80093 18.5565
Pd 7.38055 14.1643 11.1679
Au 18.1338 19.3723 26.8992
Pd 21.915 22.4922 18.679
Au 11.7687 8.33068 13.4814
Pd 19.3361 5.24506 22.2365
Au 4.79924 9.62741 9.5411
Pd 20.5635 7.22266 15.5278
Au 15.6991 6.92407 24.7734
Pd 20.9987 18.6346 23.9966
Au 4.88897 9.0157 14.9601
Au 23.3531 18.4146 25.2855
Pd 18.5812 3.85437 15.1936
Au 16.4188 12.369 10.2389
Pd 10.1699 14.6884 20.7841
Au 9.35087 7.33491 7.65319
Pd 16.7677 9.50691 20.3918
Au 20.0732 21.5972 14.4517
Pd 19.2163 25.7782 13.0916
Au 10.9636 8.40424 24.5942
Pd 20.8788 15.632 6.20631
Au 12.1318 21.2835 14.4227
Au 13.0479 4.98278 9.24601
Pd 20.2179 11.8725 23.1362
Au 18.8001 23.2965 6.20329
Pd 3.80913 17.5487 14.7101
Au 7.90717 13.2552 20.3407
Pd 16.2874 14.5871 6.32979
Au 14.6423 12.0795 3.18187
Pd 8.29525 16.7777 6.87552
Au 21.4255 10.5141 25.714
Pd 18.039 17.5836 11.7283
Au 21.6965 8.22518 7.72089
Au 7.38114 17.0783 23.9246
Pd 20.8328 24.3153 17.1859
Au 22.6896 14.4585 8.11636
Pd 12.8672 11.0439 24.6128
Au 4.87862 12.8906 17.7197
Pd 25.0567 17.4766 16.4493
Au 21.264 9.1372 23.3835
Pd 21.9745 13.906 22.8304
Au 18.9191 8.1526 7.06123
Pd 14.1382 18.1158 17.216
Pd 11.0861 12.6107 11.8995
Pd 12.2781 11.1899 13.9433
Pd 22.6182 6.71152 17.2078
Pd 23.7111 19.0439 18.557
Pd 18.8263 18.064 20.0384
Pd 3.45295 14.4291 7.63895
Pd 19.2323 9.46046 19.1644
Pd 12.6697 23.9088 14.636
Pd 17.5487 21.6924 12.9782
Pd 12.8184 6.12928 19.9617
Pd 24.1139 15.0895 21.742
Pd 13.7613 13.0529 12.509
Au 19.5918 22.9925 9.01844
Au 24.7813 13.1154 23.5177
Pd 17.0818 10.6963 14.1563
Au 21.959 7.47395 10.3922
Pd 26.1361 15.509 20.0337
Au 7.73417 10.5362 20.9019
Pd 12.7238 10.7437 19.9345
Au 15.5819 9.86477 16.3173
Pd 10.4296 10.7623 18.1517
Au 3.14464 16.5189 11.9844
Pd 24.7478 16.9274 9.65519
Au 14.0722 19.3688 3.21377
Pd 9.20562 9.41026 22.7695
Au 4.24024 18.7346 10.6971
Pd 11.2115 9.56215 15.7879
Au 15.1942 17.0207 2.65607
Pd 17.4534 22.2049 18.511
Au 15.5203 14.8794 25.3872
Pd 5.38231 14.2175 20.0747
Au 2.6342 13.7409 16.4836
Pd 25.9605 15.194 17.4179
Pd 17.0655 8.01425 18.168
Au 14.7929 20.3719 20.4493
Au 18.6417 10.2056 24.6079
Pd 6.98674 12.8784 13.4659
Au 14.6613 15.4632 17.2591
Pd 24.8659 10.8927 13.8776
Au 13.6747 14.5329 2.65373
Pd 11.4856 15.7055 25.9508
Au 1.26055 17.1635 14.0902
Pd 10.859 11.1525 9.71155
Au 17.836 13.1424 24.023
Pd 4.61513 19.1051 8.14613
Au 17.9936 26.4779 9.70033
Pd 12.6116 7.25476 10.9588
Au 12.3864 4.13526 21.6093
Pd 19.3156 17.0015 17.1504
Au 22.8612 9.89192 9.67407
Pd 6.21186 11.3135 15.8205
Au 23.3636 17.1582 7.37775
Pd 19.1866 16.3015 9.75928
Au 26.457 15.2321 22.7973
Pd 19.3816 19.504 13.0531
Pd 19.4835 17.3394 4.66984
Au 16.0911 3.29383 11.5668
Au 22.3277 11.997 18.4091
Pd 16.133 21.3293 22.6589
Au 8.38339 8.74135 25.1892
Pd 11.5128 26.1022 21.087
Au 19.1084 14.256 16.962
Pd 5.55508 18.6836 12.9895
Au 24.4898 21.6561 18.278
Pd 16.9495 5.39899 18.8049
Au 17.2241 14.489 8.85346
Pd 10.081 27.0175 14.7888
Au 22.2044 25.1958 19.4469
Pd 14.1123 13.1925 5.47013
Au 10.7247 26.5513 8.27321
Pd 17.1706 26.3242 15.0678
Au 20.1809 7.20601 18.2621
Pd 11.3697 22.7092 17.0472
Au 10.5305 23.1638 12.864
Pd 7.48658 15.9295 20.3064
Au 26.0752 17.9011 18.8841
Pd 14.6399 6.60698 17.9241
Pd 22.9477 8.41807 15.0695
Au 18.5238 12.7197 6.90831
Au 11.2721 23.463 5.61865
Pd 12.6329 24.8891 7.45922
Au 18.2932 9.0242 16.0819
Pd 9.89068 6.67759 12.3565
Au 23.5649 19.5626 22.84
Pd 19.1713 14.1601 21.9042
Au 9.80113 18.2781 11.5495
Pd 16.6368 15.8529 13.1526
Au 16.7145 26.6539 12.1872
Pd 5.69532 16.3944 11.1487
Au 22.6767 24.8904 22.2453
Pd 19.3327 11.7234 15.3273
Au 6.746 23.0722 16.2435
Pd 14.9727 24.9509 15.3418
Au 20.9159 14.0075 10.7791
Pd 24.3707 20.0446 16.1832
Au 21.9699 24.1632 8.51283
Pd 21.6901 22.3922 10.6854
Au 15.3746 21.5555 4.12902
Pd 18.6891 17.1469 14.3914
Pd 12.0366 15.5856 18.3261
Au 13.5518 12.9156 21.7488
Au 7.90338 25.4696 15.6702
Pd 19.8606 23.2669 12.4016
Au 7.15023 10.0741 13.5288
Pd 23.2676 7.26533 22.5946
Au 21.0218 6.51561 23.8053
Pd 17.2166 10.9368 18.0717
Au 18.9218 9.32365 22.0261
Pd 20.1283 14.9752 24.3937
Au 25.346 19.9604 20.5566
Pd 12.7602 26.9863 18.6996
Au 6.08611 10.4813 7.24339
Pd 17.8819 10.4415 8.32632
Au 2.02548 19.0358 15.8249
Pd 24.2192 21.3765 10.9928
Au 11.621 12.8419 26.1867
Pd 20.2174 5.39092 11.3772
Au 22.3737 24.8319 12.2405
Pd 23.1256 19.0924 9.54416
Au 7.07375 7.96404 16.045
Pd 12.6568 17.9252 8.02246
Pd 13.9263 22.3221 16.3962
Pd 11.6268 23.4662 21.7019
Pd 26.2142 10.7572 16.913
Pd 17.4551 8.08436 9.54188
Pd 14.3671 24.9873 12.6694
Pd 20.0316 9.39465 9.31735
Pd 13.2279 16.7627 24.0704
Pd 18.4245 19.6541 17.9693
Pd 10.178 24.2828 15.2566
Pd 22.8847 17.3524 11.6452
Pd 16.2037 18.3982 19.2341
Pd 9.28541 14.0539 13.51
Au 23.9653 23.3135 20.3501
Au 14.7837 27.3526 14.0354
Pd 8.85561 19.0014 5.68093
Au 25.015 18.929 11.568
Pd 13.9994 3.73773 13.52
Au 11.5679 5.69423 23.7419
Pd 13.7205 21.4236 9.992
Au 24.0335 13.9383 19.251
Pd 20.9264 13.2982 20.2151
Au 8.64564 18.4511 19.4463
Pd 12.7602 24.7492 10.2323
Au 24.1102 18.0371 14.0351
Pd 9.77386 18.3279 8.52394
Au 4.27076 21.0835 12.1464
Pd 20.2253 15.9717 12.3663
Au 23.7421 4.28779 16.796
Pd 2.60602 9.94172 13.7024
Au 7.39425 22.5744 8.64493
Pd 12.6396 14.4132 10.5162
Au 12.6708 15.4032 21.3624
Pd 15.4798 9.97116 9.34775
Pd 6.18633 12.8336 22.3201
Au 10.6129 26.0711 17.2165
Au 10.9075 8.18305 5.5201
Pd 15.6792 23.8799 23.5471
Au 16.7451 19.0307 13.6429
Pd 12.7054 19.2284 19.3744
Au 15.2196 10.8715 12.0807
Pd 26.6041 12.8395 18.6131
Au 22.4092 22.3438 16.0432
Pd 11.7369 20.2615 11.9014
Au 17.9741 21.003 4.79961
Pd 8.52739 16.3406 9.91512
Au 4.73286 11.4018 13.561
Pd 15.3743 11.6853 20.0724
Au 14.3601 15.8912 4.90615
Pd 5.51679 15.8902 6.56127
Au 22.3206 17.7273 16.3403
Pd 21.4894 7.1833 13.0251
Au 24.5027 7.12639 13.2025
Pd 20.9922 10.7081 20.8623
Au 18.2143 7.03558 20.5795
Pd 8.64442 9.93387 8.85315
Pd 19.3585 15.4585 19.5298
Au 17.7256 3.7311 20.6263
Au 19.2056 21.0201 10.9026
Pd 11.565 12.4266 5.8918
Au 21.6273 16.5348 25.8612
Pd 21.5273 14.9397 18.0381
Au 16.2877 5.26123 13.7327
Pd 17.2148 6.11257 7.84222
Au 8.30128 7.11295 10.2568
Pd 14.0798 16.2826 9.39688
Au 2.188 16.4501 16.5581
Pd 14.396 12.2239 26.4162
Au 21.7025 26.7164 14.0189
Pd 13.9651 20.3651 7.32553
Au 18.5674 3.49711 17.8513
Pd 10.8101 12.2171 15.9562
Au 7.54316 21.691 18.466
Pd 18.7727 17.573 24.9716
Au 14.3459 2.60158 16.043
Pd 5.75967 11.7504 11.1525
Au 13.1089 14.1356 24.4443
Pd 12.2616 17.6565 10.8779
Pd 11.1737 4.11125 19.1291
Au 13.8707 6.70106 13.5216
Au 19.6974 12.562 25.7573
Pd 9.55029 13.856 24.915
Au 6.76723 8.11548 8.26225
Pd 4.94591 15.7363 16.4748
Au 27.1975 9.62253 10.2695
Pd 8.79955 19.444 23.2599
Au 10.0393 11.0156 24.8547
Pd 15.0462 22.3756 14.006
Au 7.09852 14.4138 17.8694
Pd 5.52787 15.9118 13.6803
Au 22.2618 13.257 25.4851
Pd 15.1435 25.5996 7.25489
Au 25.6003 10.5599 21.7591
Pd 24.3075 8.63919 17.6897
Au 5.64371 7.21505 10.5432
Pd 18.6551 14.6511 4.94266
Au 16.9603 15.5664 15.7846
Pd 7.70582 6.44109 18.2373
Au 24.2999 12.6884 9.33547
Pd 21.3736 18.571 21.2491
Pd 15.2069 12.5954 23.9243
Au 22.3022 20.9305 24.9598
Au 26.2678 14.6799 10.2445
Pd 16.8443 18.2404 16.3681
Au 14.8362 27.2171 16.7921
Pd 14.8781 7.14672 9.18078
Au 21.5376 12.9353 6.14897
Pd 16.683 19.8337 10.9864
Au 13.4818 8.35266 23.8908
Pd 14.5807 13.8218 8.41555
Au 9.83445 21.3899 4.986
Pd 22.3238 16.6464 23.1074
Au 9.20036 17.1898 21.9483
Pd 20.622 23.2733 23.7096
Au 27.4235 14.4059 12.8
Pd 13.7249 4.07305 18.225
Au 25.4592 8.17666 20.1903
Pd 10.0048 10.7064 4.67635
Au 18.4344 3.78925 12.5275
Pd 14.0885 23.2442 5.90635
Au 23.3398 22.3431 22.8428
Pd 8.54576 11.7686 11.3489
Pd 21.9891 9.3563 18.7829
Pd 10.1448 20.5072 18.2212
Pd 25.2717 10.3177 8.49748
Pd 16.8733 16.8355 4.81285
Pd 7.97212 19.5327 17.0111
Pd 15.3568 17.1492 7.14606
Pd 9.6231 13.6638 9.70815
Pd 10.4033 11.9746 20.6403
Pd 14.3511 18.9546 9.76083
Pd 18.7573 20.9591 7.47454
Pd 12.5536 20.7501 22.0755
Pd 11.0765 17.9579 17.5477
Au 15.4505 27.3326 19.4189
Au 20.7454 10.4167 11.5743
Pd 12.5992 26.5064 15.3938
Au 17.2385 24.3357 8.10112
Pd 6.7382 18.2408 21.5949
Au 19.7121 6.54267 9.0251
Pd 14.3814 9.31571 13.9788
Au 16.7021 23.5194 20.7401
Pd 21.5217 12.0324 8.87592
Au 6.18201 18.5999 6.16387
Pd 24.607 12.9573 16.8734
Au 20.8491 9.81672 16.4957
Pd 17.4945 15.7333 23.5549
Au 10.42 19.3289 15.2947
Pd 12.0661 8.50578 18.4161
Au 13.0305 9.18564 9.00117
Pd 9.06072 6.76177 23.4918
Au 14.7765 22.6939 18.8591
Pd 20.0635 8.20857 25.7162
Au 17.8611 24.1414 10.8963
Pd 11.1921 20.5524 24.4194
Pd 7.56914 11.6611 18.2425
Au 5.66194 13.1423 6.77802
Au 20.0763 20.7185 19.8734
Pd 13.0237 22.7284 12.1953
Au 5.54309 9.68864 17.7628
Pd 17.0237 11.8474 26.2294
Au 7.44351 19.6084 8.2997
Pd 17.3942 13.537 18.9598
Au 14.5872 5.40073 11.3598
Pd 5.43361 11.483 19.9
Au 20.2989 10.5327 6.79373
Pd 18.7872 22.1673 21.9546
Au 24.663 20.7325 13.568
Pd 10.0799 25.2381 10.662
Au 14.4032 10.48 22.3541
Pd 7.66447 14.5405 8.04452
Au 8.509 5.95533 14.8496
Pd 15.0851 17.5876 11.8625
Au 18.1238 14.8602 26.2097
Pd 11.8453 14.0483 14.089
Au 14.9183 14.4216 19.8006
Pd 13.4839 11.1758 7.27871
Pd 19.6113 21.9681 17.0594
Au 23.8658 15.2761 24.7397
Au 26.5157 12.8226 14.9162
Pd 13.1913 24.7452 17.3477
Au 4.14933 20.2589 14.7931
Pd 17.8352 10.1912 5.65091
Au 10.472 16.7934 13.917
Pd 9.62289 13.3521 4.2684
Au 8.02148 25.1994 8.61636
Pd 19.7832 19.1942 15.7213
Au 12.5081 20.1725 16.8854
Pd 16.4391 23.0292 16.2677
Au 7.12331 7.43337 12.8591
Pd 15.7923 25.0393 18.1082
Au 18.1149 15.3254 28.8528
Pd 20.55 18.4009 10.8728
Au 8.80588 27.4543 9.82684
Pd 19.6395 9.29358 13.7951
Au 8.94134 23.9098 17.693
Pd 5.45925 20.6365 17.012
Au 16.0756 13.9456 27.8265
Pd 23.4837 14.8412 10.8153
Pd 20.5432 14.5977 27.3717
Au 24.6271 10.9127 19.1534
Au 16.9827 12.8182 15.9456
Pd 16.3179 19.6045 8.17586
Au 18.225 24.6934 22.6659
Pd 24.7686 23.3826 12.8113
Au 14.6584 9.29063 18.7165
Pd 5.00991 16.9615 19.8815
Au 13.1496 20.9038 26.1957
Pd 12.8107 13.6792 16.5501
Au 10.3921 19.8718 20.8922
Pd 14.6698 19.9554 15.1573
Au 14.1303 19.6694 24.0187
Pd 21.7763 16.5223 9.41742
Au 15.5548 22.8156 11.3413
Pd 23.7326 24.1813 17.4765
Au 11.2621 24.4368 19.166
Pd 3.502 15.2572 18.5448
Au 21.8032 10.9536 14.1367
Pd 16.8195 24.2859 13.3597
Au 20.8568 4.6949 16.7511
Pd 17.2011 6.12686 11.3125
Pd 16.582 13.4801 21.6611
Au 13.5706 11.885 9.9922
Au 11.7177 25.6871 12.7863
Pd 12.6352 18.5263 13.762
Au 19.4825 17.088 27.5176
Pd 22.9468 7.15625 19.7927
Au 17.0405 8.19943 13.3109
Pd 12.1819 18.4873 25.7339
Au 25.2377 15.0267 7.77518
Pd 7.31067 21.1563 6.19719
Au 7.80806 20.6638 20.9945
Pd 17.5352 20.7878 15.55
Au 17.8159 25.9216 19.9625
Pd 19.0771 12.1847 9.91921
Au 2.84396 14.1779 10.3054
Pd 22.0567 17.7425 5.19674
Au 9.79392 21.835 22.6211
Pd 8.91018 25.3323 13.1077
Au 23.8944 23.8867 10.3007
Pd 19.6959 26.3786 15.7838
Au 18.3742 7.30297 23.8356
Pd 21.3472 17.8129 13.7581
Pd 2.92935 15.1109 14.2312
Pd 6.9944 20.9803 12.1788
Pd 6.30029 25.0312 13.5654
Pd 12.0107 6.95538 7.83933
Pd 16.207 14.5845 3.4555
Pd 9.29765 12.107 7.33755
Pd 11.1902 7.45492 21.9338
Pd 13.2795 18.2483 5.47097
Pd 19.4067 23.6775 19.5163
Pd 21.1811 12.0626 27.8405
Pd 14.0281 27.2683 11.4553
Pd 22.9506 10.5979 7.09365
Au 4.70511 9.07267 12.2059
Au 5.67383 20.945 9.84631
Pd 18.6037 18.8785 9.18377
Au 20.8466 15.6064 15.2857
Pd 23.7468 16.4193 18.608
Au 6.30607 17.1451 8.67911
Pd 14.9932 15.4396 22.6007
Au 16.2828 21.9847 6.68051
Pd 21.5496 13.0016 16.1152
Au 10.4966 15.4714 11.5966
Pd 9.21399 8.44334 14.2845
Au 19.3407 7.90198 11.4956
Pd 16.1255 8.34583 22.6746
Au 11.0736 22.4652 10.2981
Pd 9.48119 20.7795 13.1847
Au 11.5402 27.5662 10.6043
Pd 8.30356 7.4141 20.9531
Au 6.79159 8.28805 22.9677
Pd 23.9196 17.6664 20.9115
Au 27.3365 11.6726 12.3616
Pd 18.6394 23.7285 15.0342
Pd 10.6203 8.40466 9.70169
Au 12.5455 9.98675 11.5768
Au 8.16242 14.7933 22.7994
Pd 25.077 6.43661 15.9111
Au 14.8929 17.2754 14.6938
Pd 24.804 8.21266 10.5368
Au 15.472 21.8035 25.3226
Pd 9.62564 22.4821 20.008
Au 19.6518 16.7596 22.2793
Pd 9.69946 9.4381 11.8649
Au 16.1353 8.52841 7.0768
Pd 13.0526 10.9231 17.1279
Au 17.0533 16.0867 20.9182
Pd 11.0295 15.9445 8.9015
Au 7.17434 17.0355 4.42379
Pd 11.9806 6.05463 17.3723
Au 10.1807 6.63373 19.2959
Pd 9.04292 20.6051 10.3584
Au 25.0502 10.8272 11.1711
Pd 15.0098 12.6674 17.6665
Au 8.61266 10.2249 16.1728
Pd 11.6133 19.9635 9.32682
Pd 18.8633 19.3996 22.503
Au 5.30856 10.2995 22.2262
Au 23.349 12.2707 21.2017
Pd 18.5838 12.8329 28.1931
Au 14.9811 4.30135 20.6066
Pd 9.78409 7.58939 16.7869
Au 23.2688 9.46684 21.2618
Pd 11.845 13.2249 8.30513
Au 11.8336 3.61032 16.2454
Pd 22.468 22.3549 13.3045
Au 24.3272 12.7719 6.65122
Pd 13.423 8.45665 21.0494
Au 20.0443 26.5081 18.5252
Pd 15.6397 19.367 5.53277
Au 5.38172 14.3885 9.41873
Pd 8.29916 12.9338 15.8798
Au 5.21558 22.664 14.0575
Pd 11.681 10.2115 22.4433
Au 9.87786 13.3945 18.2894
Pd 13.7822 18.1169 21.7878
Au 15.4668 25.4378 10.0369
Pd 20.3331 19.8495 5.51248
Pd 7.44397 15.3007 15.249
Au 2.39912 12.5966 13.8756
Au 12.6144 10.2762 4.6498
Pd 21.0803 20.8662 22.5858
Au 13.4814 26.979 8.83572
Pd 18.3584 6.13331 16.5564
Au 5.7073 15.7292 22.27
Pd 6.00986 8.63964 20.225
Au 10.0334 14.629 6.69637
Pd 8.7957 12.22 22.7608
Au 25.4582 16.3021 12.233
Pd 26.5318 17.676 21.4685
Au 14.6247 14.5539 14.6578
Pd 23.4805 10.716 16.2655
Au 26.0801 13.0693 21.154
Pd 15.1282 8.24616 11.5092
Au 20.3648 25.2676 10.5095
Pd 15.6031 20.4375 17.6373
Au 16.7419 16.9964 27.1087
Pd 22.5836 19.7228 6.94418
Au 18.054 18.7093 6.34813
Pd 21.2498 17.7044 18.8025
Pd 7.94291 22.9932 13.8084
Au 26.9295 12.1883 9.70772
Au 12.1758 28.1854 13.2754
Pd 7.19143 18.6311 10.8515
Au 9.80533 17.517 24.8858
Pd 12.925 15.3736 7.05063
Au 10.2234 14.9524 16.0757
Pd 8.60934 23.4615 6.32564
Au 23.1418 9.26453 12.4173
Pd 22.2142 19.995 12.064
Au 15.5163 9.95503 24.9267
Pd 23.0159 15.4968 13.4863
Au 13.1532 22.5462 24.0371
Pd 8.46369 23.1532 11.0454
Au 11.2407 5.94834 14.7641
Pd 7.28939 25.6368 11.1076
Au 9.5653 27.7217 12.3039
Pd 10.9317 17.1154 6.15095
Au 15.3941 14.7767 11.073
Pd 25.0425 6.06416 18.4796
Au 8.14074 8.99267 18.5729
Pd 19.1399 10.33 27.2525
Pd 8.42164 9.40689 6.28848
Pd 20.9245 20.3788 8.95068
Pd 11.28 12.8556 23.0964
Pd 16.8591 12.4497 4.70186
Pd 13.8574 24.9972 20.0732
Pd 18.9773 12.0723 12.6562
Pd 20.5439 17.9883 7.52067
Pd 15.7712 17.4854 24.5614
Pd 14.0944 16.8658 19.558
Pd 24.561 5.5669 20.9985
Pd 12.0042 5.01785 12.2142
Pd 11.0161 9.9949 7.28176
Au 21.5337 20.109 17.5396
Au 14.527 5.98995 6.9767
Pd 17.0214 21.9174 9.33832
Au 6.2281 18.0879 15.5436
Pd 2.64296 19.0734 12.8959
Au 20.7834 7.5917 21.1475
Pd 15.3153 19.3291 26.5075
Au 23.269 21.7768 8.54827
Pd 18.2365 24.7277 17.3898
Au 12.0104 12.4642 3.26403
Pd 11.4296 18.3575 22.9457
Au 5.8604 23.3191 11.4685
Pd 18.3126 16.2686 7.16869
Au 9.60886 16.2007 4.12138
Pd 20.9115 19.0991 26.5645
Au 17.5053 27.2685 17.5644
Pd 7.99974 16.2833 12.6426
Au 7.5956 11.8342 5.36504
Pd 16.5805 17.1146 9.52759
Au 14.4176 20.2299 12.4131
Pd 16.3767 2.6776 14.2382
Pd 18.1863 14.4088 11.4114
Au 18.2337 4.31895 9.77985
Au 7.13737 12.1413 8.99751
Pd 21.7955 15.7994 20.6396
Au 22.6562 4.61641 19.0911
Pd 14.5795 11.9228 14.9444
Au 10.2372 23.9295 8.27357
Pd 22.8278 20.7415 20.4622
Au 16.4045 18.4295 22.0949
Pd 23.6261 13.1021 14.4455
Au 12.2828 21.877 19.5105
Pd 6.91 20.6727 14.7947
Au 22.9476 11.2074 23.6104
Pd 25.5993 8.79872 15.2574
Au 16.6622 5.53461 22.4906
Pd 13.4066 25.1443 22.7919
Au 22.7553 12.1925 11.7117
Pd 22.2722 26.3309 16.6184
Au 9.96625 5.12768 21.4852
Pd 17.1152 19.782 24.5105
Au 7.53553 14.5653 5.29983
Pd 10.8573 15.5635 23.3386
Pd 7.12328 9.44689 10.8969
Au 21.2974 23.0565 21.161
Au 13.1671 15.9436 12.7644
Pd 6.79935 17.0948 17.9243
Au 22.8748 5.61637 14.717
Pd 9.54578 11.3178 13.8242
Au 12.4689 16.985 3.17528
Pd 11.1962 17.2926 20.2463
Au 16.246 4.40106 16.4207
Pd 16.4529 13.1092 13.1225
Au 16 11.9113 7.27618
Pd 9.19447 21.7384 15.8784
Au 25.5888 15.3089 14.6822
Pd 18.7003 14.3042 14.1788
Au 20.0064 14.3067 8.28214
Pd 18.5063 11.7644 20.613
Au 19.9875 4.95193 19.6088
Pd 25.1374 13.3568 12.3262
Au 19.6754 25.3886 7.82978
Pd 13.8684 5.26243 15.683
Au 15.9903 7.22954 15.6187
Pd 4.56541 13.8978 12.2592
Pd 8.19564 18.5874 13.7614
Au 21.1728 22.1285 6.8294
Au 19.5438 12.071 4.58326
Pd 21.1181 13.5189 13.4518
Au 15.6561 4.43985 9.08893
Pd 12.5119 16.4242 15.6893
Au 4.12638 12.0885 8.84796
Pd 26.3696 8.97827 12.6814
Au 9.5743 4.87758 17.0612
Pd 21.0842 24.2874 14.5892
Au 3.09586 11.5296 11.3803
Pd 11.8715 14.8183 4.6528
Au 27.5762 10.4005 14.6553
Pd 23.4162 15.2384 16.1965
Au 6.06774 19.3849 19.2297
Pd 24.9289 17.3017 23.4433
Au 15.8267 25.9189 21.7971
Pd 13.3285 8.04005 16.0445
Au 11.0495 19.0464 4.01534
Pd 13.4744 14.4931 27.2177
Au 11.3128 19.7743 6.61129
Pd 18.8219 6.30225 13.7316
Pd 20.2549 25.5711 21.2456
Au 7.12222 10.759 24.0773
Au 23.4134 15.1295 5.61594
Pd 12.5036 13.1939 19.2102
Au 17.8891 22.6611 24.4398
Pd 19.6933 11.9143 18.1052
Au 3.68601 16.591 9.14717
Pd 9.57501 21.3015 7.78244
Au 24.9532 22.6145 15.4915
Pd 12.7722 21.1306 4.89717
Au 13.6773 27.4184 21.3114
Pd 17.0425 16.1359 18.311
Au 15.5024 6.99536 20.4085
Pd 15.1751 10.3891 5.23245
Au 27.0972 10.2149 19.441
Pd 14.0861 16.9192 26.6182
Au 12.2386 22.2206 7.74027
Pd 23.5925 24.7893 14.7918
Au 13.9762 6.08548 22.5828
Pd 17.7369 10.098 11.3145
Au 14.2002 22.8307 21.5612
Pd 14.6884 23.3083 8.55043
