286
Atoms. Timestep: 20424
Pt 14.3515 18.7764 21.7677
Pt 19.5633 20.3498 16.8327
Au 6.69151 13.6138 11.8202
Pt 9.4646 14.1251 20.9608
Au 11.8404 9.8502 8.67917
Pt 7.14214 18.2673 16.4087
Pt 19.8905 9.04389 11.2696
Au 20.1893 10.7498 7.73625
Pt 9.79969 7.47014 13.1817
Pt 16.1165 16.2585 11.5404
Au 16.3798 14.3656 24.8219
Pt 14.3022 16.0947 21.3297
Pt 13.5809 17.175 13.8668
Au 16.3412 8.04754 8.38609
Pt 14.9964 17.8213 19.4131
Pt 19.3121 22.246 12.4377
Au 14.7049 6.6693 19.3756
Pt 11.3197 22.9756 16.8906
Pt 9.65104 18.2025 9.79603
Au 21.349 19.2938 7.85779
Pt 21.8579 20.0339 15.155
Pt 14.9536 17.428 6.80013
Au 10.0511 22.7161 12.5008
Pt 19.2981 18.8423 9.38243
Pt 10.1122 15.6974 8.53676
Au 9.28572 10.3034 9.46493
Pt 19.2402 19.5802 19.3983
Pt 12.899 18.9965 7.55767
Au 6.80887 11.0148 18.2715
Pt 8.0832 12.4472 14.167
Pt 19.6503 12.8488 19.2354
Pt 14.0064 23.4923 15.9903
Pt 11.6407 14.9438 13.6613
Au 4.95631 17.5806 17.6909
Pt 16.0185 11.8374 11.4603
Pt 11.127 9.14722 16.1251
Au 20.641 21.4168 9.95809
Pt 20.2948 17.8823 15.3756
Pt 15.0664 20.6994 11.2904
Au 23.1474 14.0337 18.1058
Pt 9.12532 9.65632 17.8537
Pt 19.5198 11.5323 21.4685
Pt 11.2637 10.7435 11.6352
Au 8.71268 10.6927 20.5783
Pt 20.8395 9.4006 16.6028
Pt 7.32014 17.3956 18.9772
Pt 13.8684 14.4286 23.4374
Au 7.13193 20.8519 15.5865
Pt 10.8501 9.11328 19.7307
Au 14.3519 24.0624 13.1516
Pt 22.6509 12.8016 10.9734
Pt 10.5133 16.0054 11.1628
Au 14.0197 23.219 10.2584
Pt 18.7567 15.6919 15.6551
Pt 16.0231 18.5949 13.1749
Pt 14.3623 17.0135 16.6704
Au 11.3719 13.9264 6.87232
Pt 15.0685 19.0986 9.0652
Pt 10.6201 17.1496 14.3128
Pt 16.6133 11.4091 16.6244
Au 10.4696 17.9107 7.16907
Pt 7.11462 13.1031 19.9755
Pt 14.2785 10.3938 12.8727
Au 8.92109 7.67932 15.7976
Pt 13.1734 8.7375 10.7726
Pt 14.7581 7.88368 12.9921
Au 9.84717 19.2044 20.8197
Pt 13.0859 22.0258 18.4202
Pt 16.7847 14.7131 9.20348
Pt 22.8325 17.5314 15.337
Au 7.28841 8.39845 13.8101
Pt 18.2154 13.2659 11.198
Pt 17.9988 21.2578 10.1963
Pt 19.0344 13.0862 14.7942
Au 5.60328 11.9844 15.3203
Pt 18.386 15.7662 23.2796
Pt 18.624 17.5585 13.069
Au 17.3212 23.647 13.7713
Pt 16.5857 17.2924 21.9434
Pt 8.95606 14.7357 12.845
Pt 18.6811 12.6947 8.71074
Pt 12.4826 19.897 20.0222
Pt 13.2704 10.6467 20.0662
Pt 21.8867 10.6608 12.3316
Au 10.5818 21.7012 19.5815
Pt 11.9386 23.1508 14.3413
Pt 18.5732 9.87985 14.8854
Au 7.32878 19.1466 11.0541
Pt 16.0306 15.0622 19.5599
Pt 11.6034 17.8265 18.1585
Pt 15.1893 20.0949 6.75757
Pt 9.8856 11.6844 16.1037
Au 17.1225 18.523 5.68699
Pt 17.0278 15.9134 6.39845
Pt 14.5951 13.8279 10.3289
Au 6.6061 19.9789 18.286
Pt 13.3161 12.8786 12.7567
Pt 15.0534 20.6914 19.6643
Au 17.4137 10.4485 7.30705
Pt 11.5524 6.76025 14.964
Pt 20.2249 10.1097 19.2092
Pt 17.837 8.97538 17.1396
Au 5.27417 13.2958 17.7998
Pt 11.2787 13.4906 11.3326
Pt 15.6881 9.62943 15.1074
Pt 14.5021 9.98646 8.27168
Au 23.3049 17.6436 8.73534
Pt 9.64149 14.4555 15.5982
Pt 20.8585 13.7678 16.584
Au 21.9352 12.8169 8.28083
Pt 19.2664 15.2842 18.2211
Pt 14.2023 18.0673 11.2911
Au 20.5777 13.9616 22.294
Pt 20.4974 14.2648 9.97977
Pt 10.735 8.24685 10.8252
Pt 8.11996 16.5072 14.7223
Au 10.6703 7.11609 17.8306
Pt 21.8507 19.1427 10.5768
Pt 11.1156 20.3992 17.2975
Pt 13.6982 19.4157 17.766
Au 23.738 12.2251 16.1456
Pt 7.62484 13.1145 16.6872
Pt 14.5763 12.2495 15.0041
Pt 7.63821 10.2745 15.7106
Au 7.77928 16.3641 10.1443
Pt 17.0441 17.3637 8.52758
Pt 23.1518 17.1541 11.4411
Pt 19.5001 7.39164 15.6464
Au 21.9607 12.1579 20.405
Pt 17.7129 10.8181 19.1162
Au 21.7199 18.9177 17.7255
Pt 22.9216 14.8663 12.5684
Pt 11.6595 18.2473 12.0609
Pt 20.9064 16.8551 9.34974
Pt 21.7964 11.6246 17.7543
Pt 12.1523 13.1962 16.1105
Pt 20.643 13.3545 12.6455
Au 10.0117 16.7388 22.4231
Pt 16.661 19.137 17.8375
Pt 10.6301 12.5807 13.6905
Pt 14.3273 13.3058 20.9482
Au 5.22402 16.8832 14.8612
Pt 15.4691 7.44097 16.9158
Pt 21.3703 18.1963 13.0955
Pt 16.7381 16.2602 17.2226
Au 11.8455 19.2117 22.6583
Pt 12.6489 16.276 7.18083
Pt 9.71597 21.8622 15.2098
Au 6.54495 10.8311 12.8439
Pt 16.9224 11.7794 13.8435
Pt 11.0982 20.3237 13.6943
Pt 13.3126 15.7623 18.8497
Pt 6.74154 16.3715 12.5199
Pt 8.90115 11.9352 11.6932
Pt 9.03653 17.8603 12.4686
Au 19.0404 8.51131 8.69846
Pt 17.2211 7.62395 19.2209
Pt 15.4299 9.41096 18.6822
Au 15.167 16.7556 24.0569
Pt 15.7686 21.6596 8.91648
Pt 17.5762 7.65429 10.7628
Pt 17.5691 21.4867 18.291
Pt 12.6324 12.2772 22.6222
Au 24.5443 16.5704 13.6906
Pt 12.8782 13.1026 18.7255
Pt 16.371 22.8843 11.4916
Au 5.55111 15.397 19.406
Pt 15.3476 12.1893 18.8161
Pt 12.5904 16.7074 23.1826
Au 18.3118 5.21677 14.5496
Pt 11.1039 12.1693 20.4337
Pt 18.8871 7.35189 13.0142
Pt 12.2227 18.6426 15.6174
Au 10.6664 20.3457 8.39518
Pt 6.4848 14.4503 14.422
Pt 8.60808 9.36449 11.758
Pt 17.6265 18.3507 15.4357
Au 21.6224 15.4369 7.28144
Pt 12.7125 20.0695 10.1919
Pt 9.25562 12.4066 18.6017
Au 15.883 8.16814 21.5129
Pt 8.5281 20.5366 13.1688
Pt 12.388 14.6746 9.26208
Pt 19.24 11.4913 16.9813
Pt 18.6888 15.1159 20.8068
Pt 19.0783 17.7794 21.6373
Pt 8.21481 14.8975 18.5901
Au 16.514 5.84205 12.5512
Pt 17.2535 20.8101 12.8548
Pt 20.7812 8.94203 13.8755
Pt 17.1865 13.3988 6.77918
Au 19.4407 22.6466 15.2592
Pt 16.2013 16.3491 14.4075
Pt 16.2902 14.7106 22.2341
Pt 9.38056 19.1852 15.4381
Au 23.1495 15.0778 9.6682
Pt 16.6765 13.9748 15.3946
Pt 14.7182 14.197 17.1767
Au 23.7665 19.2251 13.2242
Pt 20.5688 17.2157 19.657
Pt 17.1105 9.33462 12.6911
Pt 15.9693 12.1021 8.85143
Pt 12.15 17.4503 9.52218
Pt 19.0239 15.3041 7.96776
Pt 13.5852 19.7767 13.3304
Au 15.1303 11.7994 6.26419
Pt 13.2655 12.4051 8.04915
Pt 11.4709 11.0046 18.0355
Pt 15.4809 12.296 23.154
Au 14.422 5.8598 14.6466
Pt 17.4769 13.5326 17.8608
Pt 12.0139 15.9003 16.272
Pt 11.4249 10.105 21.982
Au 13.2469 21.6489 8.02859
Pt 9.39117 16.7558 17.0091
Au 12.5276 6.35904 12.2701
Pt 12.9617 8.52835 18.1975
Pt 13.2328 15.6231 11.6816
Pt 13.4587 11.4091 10.4196
Pt 17.9581 10.5 10.1189
Pt 23.1567 14.754 15.3788
Pt 15.1635 21.8185 14.1541
Au 19.7878 7.57076 18.44
Pt 14.5931 16.3823 9.21401
Pt 20.9778 15.499 14.3529
Au 8.69558 21.7625 17.6575
Pt 15.0127 6.93438 10.5813
Pt 14.729 14.4852 7.35733
Pt 18.1948 13.124 23.1759
Pt 10.8487 12.3821 9.10917
Au 13.1203 6.05177 17.0737
Pt 21.6003 20.8738 12.656
Pt 6.87285 18.7197 13.8051
Au 7.51909 15.8598 21.2223
Pt 18.4084 9.14451 20.8949
Pt 17.5308 19.9215 7.90859
Pt 8.91678 13.9815 10.1494
Pt 15.0816 19.2899 15.5078
Pt 15.7564 14.0541 12.8153
Pt 19.2681 17.6876 7.06205
Au 14.0262 9.92186 22.8994
Pt 18.5228 16.3326 10.5034
Pt 17.6515 17.1893 19.5497
Au 13.0771 8.09527 20.9994
Pt 19.4403 20.1359 14.2123
Pt 16.7543 23.2997 16.2414
Pt 21.042 11.5342 14.9049
Pt 18.3313 15.0024 13.0427
Pt 17.0269 19.5057 20.6721
Pt 13.8276 10.759 16.992
Au 17.7383 5.99989 17.1203
Pt 9.67218 10.0273 13.9777
Pt 17.2709 12.838 20.7246
Au 23.1022 9.93038 14.8088
Pt 12.3255 10.9126 14.6515
Pt 21.3036 14.7386 19.8309
Pt 6.57152 15.617 16.8012
Pt 17.0705 18.7832 10.8033
Pt 17.3006 20.9405 15.5411
Pt 19.4883 19.603 11.7294
Au 9.77026 12.095 22.7668
Pt 23.0646 12.5789 13.6715
Pt 9.79501 16.6438 19.7782
Au 11.3582 22.5105 9.99316
Pt 12.1401 17.4223 20.6704
Pt 20.706 16.0745 11.8354
Pt 19.1031 17.8242 17.5514
Pt 17.4301 10.6194 22.7429
Pt 10.812 14.6286 18.2928
Pt 16.9375 7.43036 14.751
Au 19.9359 13.2959 6.42851
Pt 14.0292 14.7969 14.7226
Au 11.0586 14.3938 23.5283
Pt 13.5098 8.38288 15.4442
Pt 9.15878 19.1199 18.2532
Pt 10.1974 20.3436 11.1538
Pt 15.2369 21.4874 17.1204
Pt 19.2105 11.1239 12.6841
Pt 12.7837 21.9525 12.2352
Pt 11.9975 14.7165 21.0343
Pt 21.5574 16.2216 17.2688
Pt 15.6022 9.47523 10.5372
Pt 15.692 10.7212 20.9739
Pt 12.0413 8.76891 13.2269
Pt 12.9564 21.163 15.6161
Pt 20.4337 11.5502 10.3297
