286
Atoms. Timestep: 20416
Pt 14.7377 7.62619 14.1278
Pt 11.4651 15.4469 12.179
Au 22.6896 11.01 19.8026
Pt 14.0157 21.7322 14.8437
Au 8.16279 17.6822 21.1286
Pt 17.2857 11.6101 14.4351
Pt 12.5221 10.8945 9.84541
Au 18.5809 7.99054 8.72257
Pt 16.3886 17.3451 15.8768
Pt 13.1051 12.5636 7.90328
Au 14.3807 8.45448 21.4756
Pt 10.6475 16.1151 21.5667
Pt 9.10085 10.2662 20.8822
Au 16.0356 23.4739 14.2968
Pt 18.8325 13.3833 22.9069
Pt 20.8766 11.702 11.8604
Au 15.8379 20.5981 21.3923
Pt 7.24867 18.4414 10.8296
Pt 6.51546 14.7941 16.6488
Au 9.49602 22.3795 18.7187
Pt 16.7376 11.0661 8.79095
Pt 12.0791 16.6127 14.9419
Au 7.7823 11.6517 9.14069
Pt 16.5059 14.4006 23.8569
Pt 20.0261 11.8205 14.2946
Au 23.4796 10.3575 17.1027
Pt 9.4917 12.8558 10.7729
Pt 24.3455 14.8411 14.3367
Au 6.54241 10.5322 13.504
Pt 18.0216 19.5039 20.3064
Pt 10.427 8.96509 13.2213
Pt 11.6325 20.219 19.3286
Pt 15.8771 8.35189 8.85183
Au 11.767 9.98664 7.36336
Pt 16.5478 14.7295 11.3745
Pt 14.5352 11.1969 18.4299
Au 7.72771 22.0522 13.2406
Pt 20.0481 18.7543 17.2084
Pt 15.5639 17.9143 20.7265
Au 21.0804 12.3448 21.7508
Pt 14.7367 7.7168 11.383
Pt 10.2531 20.3825 9.83117
Pt 7.79581 16.3621 9.43769
Au 9.42673 13.5458 22.5632
Pt 7.59341 20.9288 17.5767
Pt 10.8558 11.3388 22.292
Pt 15.4443 16.2781 13.3578
Au 12.9744 6.18832 15.6722
Pt 13.4295 10.8037 22.3296
Au 21.681 16.3762 9.89973
Pt 17.3265 14.7824 15.2182
Pt 21.2228 9.19619 12.719
Au 17.0192 6.46716 10.4096
Pt 13.49 14.3552 5.964
Pt 8.78301 8.39311 17.3026
Pt 17.4093 12.0916 6.4444
Au 13.7322 20.375 7.81164
Pt 18.8755 15.6206 10.4433
Pt 8.65495 18.6528 17.4775
Pt 13.9306 14.8115 11.5919
Au 8.45371 18.9614 8.43271
Pt 14.5726 10.7069 15.0355
Pt 8.48998 10.4891 11.6797
Au 19.3374 22.3685 11.2623
Pt 16.5488 15.9544 8.87825
Pt 10.0586 11.8921 17.1076
Au 19.2796 10.3641 7.66366
Pt 22.9477 15.6985 18.3863
Pt 6.82199 15.0959 14.0198
Pt 19.6682 17.6315 21.4086
Au 12.5464 21.911 10.2591
Pt 13.9528 21.6085 19.5818
Pt 10.0478 12.4094 19.7957
Pt 8.14577 10.6679 18.5659
Au 23.5737 15.5635 11.8908
Pt 11.119 11.2358 11.9773
Pt 16.4079 20.8056 14.062
Au 11.6126 12.357 5.76742
Pt 18.6257 11.6239 20.8965
Pt 18.0554 20.2516 10.2651
Pt 10.1882 21.1226 14.1931
Pt 18.4982 10.149 18.6383
Pt 17.2397 18.6988 18.0131
Pt 13.4386 19.2728 10.2538
Au 5.76124 19.2303 16.4186
Pt 8.93799 19.769 12.3462
Pt 21.377 11.9084 16.3865
Au 21.6466 11.5044 8.95037
Pt 15.9221 19.4286 11.6892
Pt 11.5383 19.9429 12.0106
Pt 13.1024 17.0473 22.1506
Pt 11.5577 8.55906 10.9508
Au 15.5953 6.22304 16.3373
Pt 20.6042 19.2961 19.6353
Pt 9.86781 17.8176 10.4148
Au 22.7711 18.3877 18.3048
Pt 12.609 15.7563 17.5287
Pt 9.90916 16.7275 7.80704
Au 6.1557 19.7491 12.9363
Pt 19.0647 10.0542 15.9744
Pt 23.9866 12.4424 15.5146
Pt 20.2937 14.3624 17.6621
Au 15.9822 13.9672 4.84699
Pt 15.5276 16.603 22.9241
Pt 17.5106 17.5913 11.1045
Pt 19.3089 18.037 9.23142
Au 15.7643 18.9424 6.38442
Pt 22.9515 12.988 18.1435
Pt 8.6418 14.1279 8.17301
Au 8.72331 22.6608 15.8744
Pt 20.8499 15.0766 12.1965
Pt 20.1036 17.6116 11.8431
Au 14.5383 11.767 5.56258
Pt 14.5336 8.60752 16.8051
Pt 11.8939 11.4798 14.5038
Pt 17.9521 15.8165 22.2124
Au 20.6426 15.2806 22.3208
Pt 20.372 16.6384 19.0398
Pt 12.2528 13.0784 18.4467
Pt 17.3923 7.85428 17.5119
Au 7.67637 21.046 10.4538
Pt 13.3058 8.45723 9.16929
Pt 20.2864 13.6189 10.0433
Pt 7.59852 12.9219 12.7243
Au 24.5386 12.6309 12.7366
Pt 14.4538 10.3882 7.79872
Pt 8.43984 13.3546 15.4422
Pt 13.1211 17.6621 12.4776
Au 17.3911 18.5098 22.6927
Pt 12.7406 17.6794 19.534
Au 21.6727 20.8909 17.5349
Pt 11.0263 14.0562 15.9701
Pt 17.3502 14.7015 18.0083
Pt 16.6096 13.099 21.6958
Pt 13.3148 15.3176 20.1851
Pt 13.2028 9.5823 12.6602
Pt 15.294 16.6615 18.3283
Au 10.3131 6.95878 15.1238
Pt 18.7253 13.3006 12.5077
Pt 15.9945 12.8708 16.3413
Pt 10.5295 9.63939 18.8212
Au 11.5167 8.83386 21.3465
Pt 10.2879 13.4293 13.3174
Pt 7.85233 20.0191 15.0495
Pt 11.8424 13.5742 21.429
Au 22.1112 14.1953 8.24482
Pt 21.6768 19.1031 13.1058
Pt 18.6935 10.0708 12.8028
Au 6.51605 18.8956 19.1389
Pt 9.1921 11.2075 14.0626
Pt 7.63753 10.7375 16.0545
Pt 18.6541 12.5783 16.7158
Pt 16.2745 18.7982 9.02973
Pt 18.8615 14.2491 20.2114
Pt 15.3776 16.1493 6.45543
Au 22.2745 17.0408 20.7818
Pt 15.5753 13.5007 7.49471
Pt 17.3706 9.22424 10.7707
Au 12.476 12.6581 23.9985
Pt 12.1724 22.3966 13.0744
Pt 16.6425 11.9611 11.6746
Pt 19.8283 7.7005 16.7606
Pt 7.57246 12.5267 20.32
Au 5.82668 12.6908 14.9844
Pt 7.42885 17.1034 15.8529
Pt 20.3812 9.49523 10.2336
Au 16.8029 9.49434 6.6109
Pt 10.0059 10.1483 9.65023
Pt 21.028 9.68246 18.0501
Au 24.106 16.8704 16.119
Pt 9.05106 19.9386 19.6781
Pt 16.8718 12.338 19.0566
Pt 9.82676 16.1827 17.0121
Au 9.92865 22.3441 11.6073
Pt 10.5095 17.6896 12.87
Pt 17.8045 17.3495 7.14784
Pt 15.855 8.95455 19.2071
Au 14.4742 23.2893 11.9767
Pt 7.17137 13.9953 10.3748
Pt 9.45207 15.7159 14.4861
Au 11.7732 15.2129 23.7291
Pt 19.6793 12.9959 7.55911
Pt 14.7279 18.7614 14.1788
Pt 15.5478 20.0824 16.4526
Pt 22.355 18.8505 15.632
Pt 20.3423 12.0978 18.9521
Pt 12.4402 10.5077 17.0959
Au 12.3767 6.86926 12.9386
Pt 12.3495 11.0346 20.0446
Pt 12.4064 16.6541 6.78708
Pt 14.9433 17.0196 10.6641
Au 18.1432 19.9507 7.59125
Pt 11.446 18.3677 17.2738
Pt 14.6033 15.3462 15.7436
Pt 17.8638 16.826 19.6809
Au 5.2944 17.4051 14.2388
Pt 20.4583 20.4995 15.1019
Pt 14.8654 10.2318 10.5507
Au 12.0819 22.8875 18.3241
Pt 13.8797 15.1087 8.68137
Pt 10.2558 9.67771 15.842
Pt 13.1906 8.75454 19.131
Pt 12.2767 16.7291 9.88478
Pt 21.503 9.30889 15.4333
Pt 11.6046 7.80346 17.3269
Au 15.2118 12.0626 23.8338
Pt 8.73317 15.4179 11.9823
Pt 22.439 14.4433 16.0282
Pt 18.6324 22.2426 14.0316
Au 19.3577 7.66018 19.3766
Pt 14.8665 12.869 9.93523
Pt 16.8137 22.0336 11.9234
Pt 10.7234 14.9913 19.2445
Au 10.8353 18.8659 21.6799
Pt 10.177 15.1935 9.87526
Au 5.97881 14.5229 19.3394
Pt 21.3148 16.6279 16.5019
Pt 22.7163 13.3003 10.8812
Pt 14.2638 12.806 20.5868
Pt 15.5186 13.5018 13.6918
Pt 16.5635 10.4299 16.9617
Pt 19.8068 17.74 14.5738
Au 18.038 6.12695 15.319
Pt 19.7442 15.6279 8.04687
Pt 14.7473 14.0741 18.261
Au 17.5851 10.8731 23.2084
Pt 14.1474 17.7428 8.15229
Pt 13.8463 17.9774 16.5113
Pt 22.1393 13.4568 13.6308
Pt 12.5351 8.76134 15.0103
Au 23.1403 10.5411 11.1916
Pt 12.9511 20.62 17.0437
Pt 6.25404 16.165 11.6857
Au 20.7598 20.0037 10.6383
Pt 22.1787 16.5163 13.9889
Pt 12.8829 14.173 13.9594
Pt 22.7087 10.9505 13.8991
Pt 10.4268 12.2008 8.27108
Pt 17.7624 9.13428 20.9989
Pt 15.7513 10.7267 21.1029
Au 11.6402 22.896 15.6962
Pt 12.0819 13.4456 10.2957
Pt 13.4406 12.8763 16.1488
Au 25.0015 14.4233 17.0243
Pt 18.8474 11.4796 10.1888
Pt 19.9903 14.618 14.9039
Pt 17.3479 18.2269 13.6262
Pt 17.1032 7.3378 12.9094
Pt 19.2951 7.60413 11.544
Pt 18.3457 15.867 13.1324
Au 8.07884 8.51864 14.5453
Pt 10.299 20.7059 16.851
Pt 8.44157 14.9554 20.5872
Au 5.2285 16.8864 17.6096
Pt 15.9455 15.2188 20.5251
Pt 9.85301 18.4381 15.1694
Pt 7.82639 17.5978 13.2985
Pt 18.6742 16.5534 16.8391
Pt 17.6334 13.5677 9.16969
Pt 13.9988 20.732 12.4395
Au 15.3389 21.4154 9.7628
Pt 16.4495 21.2261 18.8026
Pt 13.428 19.543 21.2552
Au 21.2474 21.7376 12.9377
Pt 18.1178 19.7001 15.7021
Pt 17.7658 14.7541 6.67105
Pt 13.7259 12.0944 12.3466
Pt 8.59805 13.9231 18.0767
Pt 18.9922 19.9883 12.7601
Pt 14.7219 22.5655 17.1776
Au 19.88 22.7209 16.3857
Pt 11.5432 18.7421 8.34678
Au 20.4802 9.71447 20.7875
Pt 19.4768 7.97814 14.1846
Pt 12.2588 19.5283 14.6488
Pt 15.8693 9.77846 12.9505
Pt 6.52131 12.4239 17.6939
Pt 14.6128 19.3024 18.7727
Pt 14.143 14.3988 22.6698
Pt 10.1402 17.5601 19.4029
Pt 7.68103 16.4707 18.6065
Pt 16.9789 8.70129 15.0848
Pt 21.5366 14.3174 20.0464
Pt 17.2433 22.1605 16.3808
Pt 18.9521 20.8994 18.1063
Pt 11.3272 14.5151 7.60578
