286
Atoms. Timestep: 20276
Pt 9.32515 11.6893 21.0134
Pt 11.0619 7.55192 18.7668
Au 9.86827 6.33514 16.5651
Pt 7.90049 10.8446 19.0539
Au 9.5114 8.89861 20.8761
Pt 9.89124 12.7625 15.3118
Pt 8.47662 8.484 15.5772
Au 7.62732 8.43979 13.1911
Pt 10.7559 10.2461 19.0887
Pt 11.6193 10.84 21.8249
Au 6.56461 9.93097 16.8229
Pt 6.99662 14.4271 11.7779
Pt 8.76011 8.53927 18.1682
Au 6.04043 12.2073 12.6664
Pt 9.30258 10.7412 16.7516
Pt 7.27275 14.1679 19.0404
Au 5.32138 12.3865 15.266
Pt 8.85906 15.9746 12.8052
Pt 6.05102 14.8064 16.4283
Au 5.12531 14.8554 13.8815
Pt 10.3556 15.4273 14.8962
Pt 7.5954 13.9651 14.4346
Au 5.36765 17.3062 15.5375
Pt 9.21738 18.0546 9.12698
Pt 10.5468 17.2635 11.2586
Au 7.12042 19.2189 14.2519
Pt 8.39613 18.5802 11.8718
Pt 9.1558 20.3149 15.8102
Au 9.99328 23.3611 14.0882
Pt 6.46065 16.9238 12.8963
Pt 10.1154 20.0969 10.4427
Pt 10.9692 8.81821 16.3586
Pt 12.5712 6.56407 16.783
Au 12.3134 6.85577 11.9492
Pt 14.3502 11.4958 16.9111
Pt 13.72 7.14243 19.1392
Au 21.098 7.95286 17.1474
Pt 9.90968 8.43731 11.8433
Pt 12.5269 9.43871 12.5761
Au 8.90725 9.54884 9.52591
Pt 10.013 10.1593 13.9398
Pt 9.47076 12.8755 18.5134
Pt 16.3616 12.7633 18.074
Au 12.1942 16.8454 16.0972
Pt 11.5637 12.7331 19.9373
Pt 11.352 13.3029 22.5639
Pt 13.501 10.8907 19.7051
Au 13.7209 12.9603 24.0882
Pt 12.3758 8.70445 20.7107
Au 10.3569 15.6114 23.3275
Pt 8.05014 10.6221 11.8863
Pt 8.78081 12.3484 9.9476
Au 7.08211 14.1648 9.11379
Pt 7.67257 11.1027 14.5549
Pt 12.2121 17.0368 13.4026
Pt 11.5337 12.246 13.1428
Au 14.0697 11.9554 13.1116
Pt 8.72287 14.7723 16.7769
Pt 9.52878 15.7805 18.9899
Pt 11.7128 15.1748 20.546
Au 11.4629 14.5359 17.4994
Pt 7.32593 12.505 16.95
Pt 9.23515 14.2711 21.0875
Au 7.424 16.3171 20.692
Pt 11.3559 16.2769 8.99269
Pt 12.0906 15.005 6.71951
Au 10.4686 17.2368 6.57657
Pt 7.52607 16.575 10.3985
Pt 11.2383 14.772 12.5386
Pt 9.48863 14.8298 10.4557
Au 14.922 17.7075 9.43432
Pt 14.5323 18.2946 12.2468
Pt 9.8485 18.2004 14.2562
Pt 9.45088 17.6688 16.8544
Au 15.9763 15.9121 11.3764
Pt 7.12126 16.6595 17.9228
Pt 8.62228 18.3817 19.3814
Au 7.11569 19.1417 17.0557
Pt 11.3682 19.1459 8.20146
Pt 12.4014 21.2341 9.66986
Pt 13.9557 19.7855 8.01967
Pt 12.6439 18.7201 10.3749
Pt 9.19794 20.728 13.1647
Pt 14.9534 20.4772 10.4497
Au 14.8558 22.3172 8.52275
Pt 11.3861 19.4335 12.5823
Pt 7.79652 16.645 15.1375
Au 9.95453 22.6705 16.8955
Pt 11.1309 22.0843 11.9007
Pt 13.4693 20.9289 12.5052
Pt 10.5539 7.50306 14.1259
Pt 14.0612 8.46777 10.2421
Au 12.2056 5.45214 14.3842
Pt 12.4428 10.6097 15.0978
Pt 16.3226 7.04207 19.0678
Au 14.72 5.14107 17.6546
Pt 10.5595 10.9152 11.2538
Pt 10.4085 13.6812 8.12503
Au 11.9194 11.7241 6.23914
Pt 11.575 8.83876 9.9119
Pt 9.0831 12.9508 12.5831
Pt 15.033 9.89097 14.714
Au 16.6046 12.8295 12.3472
Pt 14.9758 7.86658 16.8025
Pt 13.0232 9.28924 17.7244
Pt 17.6392 8.89318 20.3676
Au 13.9197 14.7225 13.3152
Pt 15.0118 8.64813 20.8465
Pt 14.1105 10.5503 22.4578
Au 16.7539 9.7149 22.7647
Pt 13.8941 13.4497 5.8738
Pt 14.8671 11.2774 6.6469
Au 17.7363 16.1274 6.06547
Pt 8.87299 15.7651 8.07337
Pt 11.6737 13.3727 10.4302
Pt 13.1298 12.7166 8.3449
Au 14.4785 13.5702 10.7167
Pt 17.3547 8.3247 12.5968
Pt 12.5665 13.3853 15.2589
Pt 15.7012 9.70554 18.3942
Au 17.5196 13.6083 10.0106
Pt 11.7654 11.842 17.3419
Pt 10.9932 19.4894 20.9472
Pt 15.9547 11.1353 20.5445
Au 16.0888 15.5453 18.5431
Pt 13.7783 12.9744 21.4897
Pt 10.0068 17.1175 21.2839
Pt 16.142 12.3247 22.918
Au 13.3734 16.2285 18.4665
Pt 12.9851 15.4288 22.9864
Au 11.9765 18.0103 23.2871
Pt 15.8187 17.9784 6.96081
Pt 16.5563 20.0668 8.39547
Pt 18.1972 18.0374 8.17533
Pt 13.1525 17.3936 7.25675
Pt 17.7642 21.1092 10.4132
Pt 13.8377 15.266 8.68199
Au 19.286 20.5624 8.27466
Pt 13.1099 16.1109 11.0397
Pt 13.1592 19.2424 14.5808
Pt 15.3534 9.97284 11.9688
Au 14.6608 16.9907 14.7467
Pt 11.1922 17.7878 18.7721
Pt 11.538 19.3792 16.5714
Pt 12.8962 19.7827 19.1402
Au 14.2722 18.5653 17.254
Pt 10.0144 20.3276 18.4202
Pt 12.7262 17.5223 20.9015
Au 11.2672 21.9782 20.0839
Pt 16.2471 23.0799 10.7201
Pt 13.6633 23.0707 10.9076
Pt 18.1676 22.4087 12.8022
Pt 15.3527 22.7798 13.0281
Pt 12.2117 23.7488 15.8279
Pt 13.9266 21.8165 15.0717
Au 14.8764 25.1631 12.3211
Pt 11.4025 21.2952 14.6672
Pt 12.4176 21.6801 17.4251
Au 11.9086 24.0631 18.507
Pt 12.7477 23.5802 13.3178
Pt 14.7983 24.3416 15.0526
Pt 16.5582 8.25832 10.0919
Pt 19.1415 8.94776 15.1115
Au 17.1615 5.99824 11.3299
Pt 14.7896 5.97303 15.0172
Pt 17.0148 6.07063 16.7232
Au 17.2705 5.57706 13.9749
Pt 15.7928 9.22093 7.91101
Pt 13.2367 9.96343 8.13757
Au 16.5891 13.4177 5.49869
Pt 10.9133 11.1703 8.66465
Pt 13.1232 11.0804 10.5922
Pt 15.5216 11.2172 9.5054
Au 21.2406 13.5255 7.86952
Pt 13.1306 8.03399 14.7014
Pt 17.9646 8.53257 17.4651
Pt 19.9887 9.15164 19.3797
Au 15.7813 12.7364 15.0628
Pt 16.7697 8.00903 15.003
Pt 18.0769 11.0246 18.9122
Au 22.438 10.1169 18.5183
Pt 18.3756 13.8711 7.47749
Pt 15.0403 15.6264 6.3037
Pt 16.6323 15.8302 8.50505
Pt 15.6604 13.4689 8.00581
Pt 19.7651 15.8987 8.10066
Pt 19.2167 17.4102 12.6015
Au 20.9748 18.2412 8.01064
Pt 17.7462 10.5523 10.8216
Pt 20.2693 14.3181 10.2207
Pt 13.8985 13.4876 18.8435
Au 16.6166 15.2276 13.9289
Pt 17.4122 14.6177 16.4117
Pt 16.2489 13.6521 20.6062
Pt 18.4562 13.096 14.4907
Au 14.5305 14.7632 16.3763
Pt 18.4377 11.6178 21.4572
Pt 15.6351 14.877 23.0705
Au 20.7349 13.3739 21.5063
Pt 19.7326 18.8859 10.2385
Pt 16.2373 20.4363 12.7593
Pt 18.818 19.8942 12.4785
Pt 17.0437 18.5646 10.7924
Pt 15.6943 19.6096 15.2515
Pt 16.9493 17.9515 13.5793
Au 20.4044 21.5087 10.9804
Pt 18.9143 14.7714 12.468
Pt 15.137 17.8022 19.8672
Pt 20.6934 14.0695 15.4026
Au 16.7617 17.436 16.583
Pt 14.4416 15.4566 20.8304
Pt 13.9048 19.8036 21.5619
Pt 18.145 14.1715 22.3795
Au 17.5427 16.88 23.2907
Pt 14.8238 17.4243 22.6382
Au 19.9153 15.9145 21.19
Pt 16.6266 22.0082 15.1273
Pt 16.9149 23.7886 16.8217
Pt 18.3796 19.9937 14.9561
Pt 15.0559 21.3105 17.2791
Pt 16.4602 22.6894 19.0973
Pt 15.6602 20.177 19.4399
Au 17.2712 24.5826 14.0898
Pt 13.8848 22.1918 19.739
Pt 16.6616 19.0369 21.6977
Au 15.862 21.7253 21.6399
Pt 14.3662 23.7522 17.5488
Pt 17.5075 20.3446 17.4225
Pt 19.1188 7.88435 10.631
Pt 19.4797 6.95114 13.1284
Au 21.6849 8.00207 11.6408
Pt 14.9045 7.41151 12.7447
Pt 19.9771 10.4197 17.0825
Au 19.4472 6.32369 15.7595
Pt 17.3286 11.4656 7.51128
Pt 18.4528 16.3461 10.3004
Pt 18.4574 9.44245 8.61327
Pt 19.7067 9.60417 12.6059
Pt 19.45 12.1377 11.8173
Pt 22.3475 10.0955 15.8033
Au 22.3879 15.8755 8.79099
Pt 17.5512 10.717 13.707
Pt 19.1501 12.9254 17.242
Au 19.045 6.59929 18.7536
Pt 21.0418 16.7208 10.9334
Pt 22.8035 14.9157 11.2999
Pt 19.4279 11.95 9.04499
Pt 22.935 12.422 14.7607
Pt 21.1199 15.9567 13.6298
Pt 21.7679 12.3488 17.1059
Au 23.9451 12.666 12.2592
Pt 17.2738 10.8233 16.3173
Pt 20.5181 11.7937 19.4657
Au 23.0914 16.5602 18.3062
Pt 21.4323 19.2593 12.2938
Pt 20.6512 18.4495 14.6845
Pt 23.4436 14.8501 13.9206
Pt 21.9434 18.7709 17.116
Pt 18.783 15.9219 18.2509
Pt 18.8683 16.3603 15.0596
Au 22.7274 18.4813 10.0778
Pt 18.6342 13.7612 19.7375
Pt 21.0204 14.5841 18.7455
Au 22.9739 12.9613 19.3384
Pt 19.2601 18.3743 16.9363
Pt 20.592 21.2488 13.8417
Pt 23.0552 17.3214 12.7151
Pt 17.7641 18.2966 19.1733
Pt 18.063 20.8726 20.2368
Pt 20.6784 17.4782 19.1628
Au 22.8804 19.7927 14.641
Pt 17.2181 16.2534 20.8461
Au 19.2949 18.5943 21.3678
Pt 18.8966 22.3378 18.0196
Pt 20.0458 19.9968 18.8899
Pt 21.447 8.35505 14.2491
Pt 20.6623 10.0436 10.2372
Pt 20.3498 11.3642 14.602
Pt 21.9119 12.369 10.4312
Pt 21.3304 13.423 12.8901
Pt 22.0607 10.7133 12.6824
Pt 23.0196 14.5671 16.5777
Pt 23.0207 17.0759 15.3367
Pt 20.9466 16.2906 16.6581
Pt 20.4927 20.8015 16.4219
Pt 19.0341 22.7387 15.4046
