286
Atoms. Timestep: 20392
Pt 18.0839 8.70574 11.0979
Pt 14.3873 10.0551 15.5383
Au 13.4029 18.7194 23.4456
Pt 14.8897 9.34494 7.94612
Au 15.024 5.38531 18.1205
Pt 14.2305 18.5969 20.6136
Pt 11.58 9.87759 14.1349
Au 23.8476 14.8257 14.831
Pt 10.862 8.53322 16.2034
Pt 16.1607 18.4845 7.42251
Au 21.3822 17.7169 20.899
Pt 18.0052 16.7741 7.52067
Pt 8.19218 14.8258 10.0998
Au 5.3338 16.6749 14.2779
Pt 8.70444 8.30951 14.5584
Pt 13.5419 23.1447 16.314
Au 9.19447 19.6445 8.50672
Pt 11.8905 8.7158 11.4855
Pt 13.2986 22.2804 18.7568
Au 14.4372 12.4626 23.9023
Pt 19.4102 15.0056 16.7178
Pt 15.6945 19.1423 10.8291
Au 11.1434 8.24946 8.8541
Pt 20.826 11.3693 14.605
Pt 9.69171 15.8744 8.18271
Au 17.5399 15.2579 5.39475
Pt 17.4771 9.82031 8.77569
Pt 6.64206 14.293 14.2332
Au 18.0258 10.0629 22.7625
Pt 10.25 12.3737 14.1407
Pt 14.0329 14.1934 7.96121
Pt 13.1057 13.9522 20.7398
Pt 10.5119 7.58934 18.6
Au 9.78016 6.17778 16.0055
Pt 16.8529 6.15994 15.9108
Pt 9.27851 10.5836 15.6756
Au 20.8164 12.4116 8.46953
Pt 11.6849 18.3819 21.5046
Pt 9.06851 14.7379 15.7954
Au 23.4354 19.4636 11.835
Pt 11.8343 13.9483 12.5554
Pt 12.7794 11.5097 21.9799
Pt 15.6871 7.57757 11.7989
Au 14.6035 18.2696 15.7861
Pt 22.51 21.184 13.8671
Pt 18.6659 11.6479 20.6744
Pt 15.4009 11.9753 8.89882
Au 7.59759 10.9058 10.6211
Pt 19.2719 20.2361 16.4411
Au 19.3421 19.1833 7.59879
Pt 15.255 21.2689 20.2827
Pt 9.43676 18.7473 13.7294
Au 11.3381 6.2178 10.8748
Pt 7.71428 11.7526 13.4549
Pt 13.6229 18.0749 7.3838
Pt 16.6773 10.0717 20.3319
Au 16.1379 15.8129 14.4354
Pt 10.1662 10.467 9.9316
Pt 17.1474 20.6095 8.35457
Pt 17.424 21.1661 14.5385
Au 13.3867 16.1687 14.2192
Pt 21.2263 20.9595 11.5932
Pt 9.50854 12.923 8.81585
Au 10.8234 22.1698 19.7847
Pt 19.2347 20.6441 9.90422
Pt 10.3131 20.0287 17.9176
Au 15.0137 5.27681 10.7118
Pt 9.19411 12.0792 19.7706
Pt 16.9304 12.5008 22.8343
Pt 15.4162 16.5998 9.11268
Au 8.70089 17.2778 21.0088
Pt 9.56579 12.6032 11.3838
Pt 15.6503 9.78378 17.9754
Pt 6.98052 16.3805 16.5791
Au 11.9082 18.4249 15.0226
Pt 22.1359 17.2261 11.1217
Pt 16.5929 23.282 12.7731
Au 5.61825 14.1955 16.7469
Pt 17.8636 20.0125 12.1423
Pt 11.8233 11.3136 11.8263
Pt 18.6045 10.477 15.1813
Pt 20.3034 16.4701 18.7755
Pt 22.6844 14.8363 12.2012
Pt 18.8577 15.8929 14.3092
Au 17.8925 18.4563 22.8139
Pt 11.6002 9.2433 20.3439
Pt 20.3088 15.2344 21.2769
Au 13.0204 20.953 21.8177
Pt 12.1606 11.3158 16.4518
Pt 18.9921 11.5377 12.7057
Pt 20.1498 17.1128 9.20666
Pt 14.014 23.186 13.7166
Au 10.8347 17.9662 6.9634
Pt 10.7486 14.8635 10.3428
Pt 15.2064 16.0632 6.47115
Au 5.88269 18.5913 17.6081
Pt 21.6981 12.3604 18.1233
Pt 14.298 5.4599 15.3972
Au 13.6644 7.45312 9.70909
Pt 19.5197 13.8286 19.1409
Pt 17.6709 15.8007 18.7179
Pt 16.0206 16.5571 20.8986
Au 13.2877 11.959 13.944
Pt 19.2881 13.4786 10.6773
Pt 16.8423 9.6497 13.2092
Pt 19.3334 7.94691 15.7521
Au 11.3597 16.1248 16.8999
Pt 12.1269 16.6183 11.8247
Pt 9.36041 16.8392 11.8225
Au 21.6312 19.3708 9.44693
Pt 15.2887 7.70101 14.3012
Pt 19.6707 10.7251 10.2913
Au 6.53804 16.2845 19.2592
Pt 8.00483 17.4421 9.75596
Pt 6.89426 18.7072 15.1975
Pt 12.8379 7.74288 14.8767
Au 23.0476 17.2532 18.7222
Pt 16.7821 19.7704 16.6866
Pt 16.9147 8.81805 15.8938
Pt 21.5202 18.666 13.6927
Au 9.18237 8.01554 10.9697
Pt 12.3144 20.0029 19.5139
Pt 19.3039 13.3031 22.5536
Pt 18.3246 9.96814 18.0715
Au 8.76812 9.26473 20.0365
Pt 10.6679 17.8396 9.78626
Pt 19.3045 12.2451 17.1109
Pt 10.6217 14.4657 19.2372
Au 14.3537 15.76 16.8277
Pt 17.7453 21.0163 18.8524
Au 18.8009 8.50795 20.5483
Pt 15.3089 20.9938 12.7497
Pt 13.62 11.6634 7.14822
Pt 21.699 12.5837 11.0731
Pt 17.5611 14.2594 12.5308
Pt 11.462 22.9828 14.6065
Pt 22.9865 17.5918 15.8845
Au 20.0996 7.83432 18.282
Pt 18.071 12.3096 8.72448
Pt 17.3387 7.50199 18.1996
Pt 8.9795 14.4472 12.9592
Au 9.6355 19.8903 20.6108
Pt 18.2364 12.9385 6.33608
Pt 19.6147 8.96225 13.221
Pt 16.4713 11.0739 6.74421
Au 17.6919 5.91566 11.1801
Pt 10.7042 13.2269 21.6072
Pt 19.4156 14.6348 8.02526
Au 8.37168 14.5918 20.8071
Pt 8.81348 19.5591 11.1983
Pt 10.9785 22.5269 17.153
Pt 16.8009 14.3023 16.7734
Pt 12.6278 20.8753 13.7425
Pt 22.0095 15.5573 16.9816
Pt 15.242 10.3701 22.5237
Au 7.03452 9.19808 12.69
Pt 14.4983 22.9722 11.0872
Pt 12.159 12.6703 9.52156
Au 21.8895 8.90991 14.6917
Pt 7.79844 13.8272 18.2565
Pt 21.1106 12.6272 20.7646
Pt 6.88046 13.3163 11.6658
Pt 10.6793 7.31572 13.328
Au 18.3459 22.8813 16.9839
Pt 14.2938 12.0213 11.3064
Pt 13.2734 20.6783 11.0278
Au 6.6791 9.99943 15.3668
Pt 9.5366 10.053 12.6051
Pt 16.7124 14.4499 7.95695
Au 15.4265 22.7734 8.53211
Pt 10.6705 16.1898 14.1014
Pt 13.3902 6.56022 12.6034
Pt 19.9172 20.8757 13.8197
Au 20.428 21.6063 18.424
Pt 16.2815 18.7088 13.9085
Pt 10.2674 10.2396 18.131
Pt 13.8184 18.649 12.904
Au 14.6658 14.1424 12.9312
Pt 21.419 16.0047 14.2704
Pt 20.5256 10.3965 19.4227
Au 12.5374 16.0236 5.90063
Pt 17.48 14.1666 20.7808
Pt 22.1431 14.6738 19.4312
Pt 21.0466 19.0088 18.4044
Pt 15.7561 22.3021 17.6985
Pt 17.8125 18.3498 9.70581
Pt 21.4598 13.5354 15.6662
Au 11.829 5.18044 14.4611
Pt 12.349 6.35201 17.0634
Pt 8.95095 16.0953 18.24
Pt 10.0425 21.4534 12.8657
Au 12.7733 6.69955 19.7102
Pt 10.3166 20.5885 15.3422
Pt 20.4338 13.7093 13.1687
Pt 17.8691 15.6045 22.8125
Au 23.8344 13.6567 17.3452
Pt 12.9591 10.2136 9.48179
Pt 13.6615 8.42741 21.7259
Au 24.2551 19.4024 14.5153
Pt 17.8348 7.11674 13.6055
Pt 17.6259 17.1814 12.1989
Pt 11.9681 19.8274 8.57621
Pt 21.8833 19.9619 16.0853
Pt 13.3976 18.123 10.089
Pt 21.412 14.8764 9.81655
Au 10.1518 10.684 21.9492
Pt 12.3667 16.1581 8.58727
Pt 15.2636 14.5556 19.1585
Pt 21.5011 10.4082 12.3311
Au 11.9434 13.9972 15.3497
Pt 12.7295 13.8951 17.9312
Pt 6.98867 18.4402 12.5591
Pt 11.4141 13.9315 7.34757
Au 16.3691 7.95172 21.9786
Pt 11.8808 11.8336 19.431
Au 13.0556 13.4769 5.30823
Pt 20.2707 17.6315 16.2367
Pt 20.8334 10.02 16.8689
Pt 12.6521 20.6264 16.5944
Pt 17.4357 17.1566 16.2989
Pt 12.8513 9.12495 17.9364
Pt 20.7788 22.338 15.7685
Au 19.5095 19.7918 20.5977
Pt 10.0758 12.7715 17.2038
Pt 7.60282 12.5656 15.92
Au 11.0616 11.0494 7.47199
Pt 14.401 12.0203 18.107
Pt 12.8074 18.1959 17.7403
Pt 16.3787 7.4845 9.32725
Pt 9.35774 17.9873 16.2979
Au 11.94 23.1032 11.8449
Pt 18.6706 17.1316 20.7565
Pt 15.1425 7.76252 19.6143
Au 12.4944 14.2503 23.362
Pt 14.0207 10.2492 20.0218
Pt 17.0777 12.4097 18.7519
Pt 15.3936 9.70973 10.4902
Pt 14.6986 7.61254 16.9177
Pt 7.84299 20.7548 13.9589
Pt 16.1496 12.0432 13.6639
Au 8.24679 8.35557 17.2616
Pt 15.2752 14.5431 22.4498
Pt 16.5553 11.612 16.2892
Au 7.49548 10.9235 18.024
Pt 14.5821 20.2617 8.72283
Pt 14.02 9.56046 12.7792
Pt 11.0014 15.8442 21.3842
Pt 13.4993 16.4179 22.066
Pt 15.6372 17.543 18.4027
Pt 16.8024 19.0888 20.3336
Au 12.7515 22.4367 9.05006
Pt 10.6894 21.1364 10.3593
Pt 19.9546 18.5912 11.556
Au 15.6133 19.9339 22.6217
Pt 6.74837 15.9473 11.9459
Pt 13.5088 14.7598 10.5023
Pt 18.4064 13.225 14.8458
Pt 15.8831 5.36335 13.2893
Pt 11.3471 19.1504 12.0293
Pt 17.9585 15.7089 10.0308
Au 8.85234 22.7847 15.4201
Pt 22.8448 12.5467 13.5301
Pt 8.03547 20.4389 16.7099
Au 23.1695 11.282 15.9813
Pt 15.5828 13.3331 5.93657
Pt 15.117 16.5795 11.7528
Pt 13.1524 16.2706 19.4752
Pt 23.6026 17.0943 13.29
Pt 14.5946 13.2894 15.7366
Pt 18.877 18.5547 14.2464
Au 21.1355 23.3214 13.1681
Pt 16.1502 23.3519 15.3442
Au 15.655 17.1322 23.5558
Pt 18.7406 23.3521 14.3764
Pt 15.2649 12.4156 20.8051
Pt 10.7501 17.6104 19.2268
Pt 16.0115 14.0268 10.4148
Pt 16.7291 21.7413 10.5695
Pt 18.4564 18.4345 18.3555
Pt 20.0028 15.9221 11.8429
Pt 14.7166 19.9803 18.196
Pt 17.0934 11.5779 11.0658
Pt 8.03293 16.5777 14.2072
Pt 14.8619 21.0137 15.3494
Pt 8.21159 18.5484 18.6763
Pt 18.9382 22.444 11.8676
