286
Atoms. Timestep: 20315
Pt 12.891 11.5993 13.1501
Pt 15.3535 10.8394 12.8708
Au 22.7383 12.713 9.56873
Pt 14.8417 7.38237 19.9491
Au 11.9215 19.6115 22.3072
Pt 16.6584 6.2823 13.5403
Pt 17.8529 16.5843 6.79266
Au 15.8546 17.6623 5.15686
Pt 14.373 21.3792 13.2102
Pt 20.1871 16.2085 13.6968
Au 21.8448 21.0478 17.6041
Pt 17.74 11.2932 13.746
Pt 16.7763 22.5056 12.6101
Au 22.4044 16.1276 19.2372
Pt 14.0369 13.6732 22.5241
Pt 17.0737 6.76548 16.0633
Au 5.17178 19.1435 14.9875
Pt 10.6777 21.4535 17.4055
Pt 11.2317 17.8663 20.4869
Au 19.5669 20.773 19.1904
Pt 18.8852 7.17974 12.1415
Pt 17.0898 19.2369 9.68172
Au 9.17486 11.4412 7.79309
Pt 20.8067 18.2426 19.0605
Pt 12.6062 6.94234 13.6816
Au 19.4671 14.2151 6.96282
Pt 15.2897 15.0454 14.9094
Pt 17.0208 20.3121 20.2155
Au 13.2992 13.148 24.9167
Pt 9.95374 13.0705 19.4023
Pt 10.0166 10.9426 12.4671
Pt 17.3904 21.9641 10.1183
Pt 17.8783 8.56959 14.3109
Au 17.8362 10.895 22.503
Pt 11.2034 10.1478 17.1076
Pt 16.9593 11.5432 20.0259
Au 7.5986 13.4161 9.45645
Pt 21.2289 16.4435 16.8764
Pt 15.1874 20.5044 15.8445
Au 16.507 9.90061 8.07006
Pt 21.3669 17.9113 9.21351
Pt 11.359 10.7477 19.9474
Pt 12.538 12.3246 15.9404
Au 12.4574 11.2631 23.0418
Pt 23.5736 14.6278 11.1717
Pt 18.7847 18.2468 20.6969
Pt 19.9868 20.2623 9.74974
Au 20.6573 16.7425 6.77879
Pt 12.2624 13.0548 20.7357
Au 22.9751 13.9509 17.4976
Pt 13.6762 8.95295 12.1602
Pt 10.8002 17.3054 10.0968
Au 7.81843 10.9923 10.7115
Pt 20.4388 8.49752 13.8408
Pt 17.2401 14.1073 18.4081
Pt 8.7707 17.5227 11.5238
Au 6.03854 13.3975 12.8973
Pt 11.9857 15.3419 6.58884
Pt 13.0931 9.10999 21.1587
Pt 16.9417 22.3715 15.2266
Au 6.22987 21.0948 16.5707
Pt 13.9053 11.3337 7.18749
Pt 13.0285 19.7707 17.2629
Au 20.9671 8.48523 10.9561
Pt 24.1349 18.0927 14.1434
Pt 13.9442 10.2062 16.3663
Au 6.7759 21.1588 13.6274
Pt 16.1371 17.9234 20.4773
Pt 16.8435 6.29862 10.9195
Pt 20.0699 15.8549 20.8248
Au 7.94994 16.2833 8.78209
Pt 10.636 19.7978 15.4534
Pt 16.4717 10.1227 15.7867
Pt 19.0353 13.223 20.5948
Au 15.5341 21.537 8.3581
Pt 11.0464 8.38959 12.2242
Pt 11.4114 18.1042 12.7458
Au 6.33749 18.4872 17.6427
Pt 19.4179 8.09573 16.5008
Pt 9.26918 17.5649 14.1397
Pt 20.2051 19.2396 16.7952
Pt 18.0167 18.6776 18.2573
Pt 7.77903 12.4965 20.4556
Pt 11.8086 14.7843 9.20699
Au 13.4762 15.7759 24.2029
Pt 14.6835 14.9909 9.62866
Pt 13.5504 6.14295 17.9104
Au 19.2412 6.11711 14.6017
Pt 18.9927 9.82176 12.0658
Pt 8.96623 17.5732 16.7916
Pt 7.52803 10.8429 16.4598
Pt 16.4458 8.65227 12.0889
Au 8.68361 18.8849 8.91779
Pt 15.495 15.7558 22.0362
Pt 14.4455 10.349 9.97375
Au 23.7773 16.1389 15.925
Pt 18.9889 16.3664 18.4798
Pt 17.0838 17.7845 12.2542
Au 14.8409 23.0931 10.908
Pt 22.5872 19.8069 10.5733
Pt 16.961 11.049 10.6837
Pt 11.4526 14.1354 22.976
Au 22.2714 15.2997 8.62823
Pt 9.01244 8.67936 17.1391
Pt 13.6438 18.3549 19.5418
Pt 10.1898 8.55873 19.5318
Au 18.2629 21.0416 7.7963
Pt 15.0874 16.1257 18.9641
Pt 12.0269 14.8788 15.7859
Au 7.55314 8.50809 14.9841
Pt 11.544 12.7445 7.22581
Pt 17.7998 16.9373 22.6289
Au 24.8777 19.0181 11.7584
Pt 15.5751 18.6795 17.7166
Pt 7.69094 13.2829 17.6837
Pt 10.697 12.9996 14.1109
Au 16.0149 14.3815 24.3399
Pt 19.0285 18.4341 8.13103
Pt 17.1737 7.14506 18.5915
Pt 19.073 10.6691 15.8427
Au 5.55837 12.1136 15.372
Pt 9.57608 15.0663 10.6927
Pt 18.856 17.3374 15.8004
Pt 12.1943 16.4818 18.3773
Au 23.1769 11.9339 14.8522
Pt 9.31196 20.128 13.2637
Pt 19.4015 10.5338 20.2624
Pt 18.1668 12.3062 8.34449
Au 11.8975 5.35448 15.7403
Pt 17.4792 15.5382 20.462
Au 15.3268 11.5474 23.7284
Pt 10.6567 22.3063 14.3582
Pt 21.7817 14.4159 15.0184
Pt 21.2218 20.7176 14.9439
Pt 11.9617 20.6287 12.799
Pt 14.5362 14.1205 17.1582
Pt 7.14201 15.8645 17.6964
Au 8.50091 8.67606 12.488
Pt 13.9473 17.8255 22.2887
Pt 18.9845 21.622 13.9161
Pt 10.58 15.3035 20.6147
Au 12.105 6.72732 20.2132
Pt 9.60989 14.3331 7.94788
Pt 17.1438 16.4895 9.53532
Pt 10.2119 12.3668 9.87826
Au 21.5278 12.0798 19.5797
Pt 14.2384 19.2802 8.26285
Pt 14.383 11.47 21.0857
Au 9.95251 22.3126 11.7502
Pt 12.8549 8.76125 18.5908
Pt 10.9618 6.98751 17.6469
Pt 9.23418 15.1078 15.5685
Pt 8.62691 21.7677 15.6603
Pt 17.7988 19.7475 15.7561
Pt 13.342 14.0982 13.5078
Au 22.9672 18.557 17.2183
Pt 9.82784 15.3566 18.0032
Pt 21.5083 18.2084 12.2196
Au 15.7675 17.2338 24.2938
Pt 19.4824 15.8506 8.99368
Pt 15.241 8.0695 17.2228
Pt 12.9218 16.994 8.58768
Pt 8.69339 17.6107 19.3548
Au 23.7433 12.0912 12.1276
Pt 12.1718 13.9269 18.2839
Pt 10.7765 15.5392 13.2155
Au 13.9185 8.7756 7.71377
Pt 17.2787 13.22 15.7953
Pt 17.6057 15.8064 14.1127
Au 19.6412 7.89092 19.2565
Pt 18.8703 12.1682 18.0656
Pt 19.2798 14.7328 16.3679
Pt 11.6776 13.4897 11.6187
Au 5.30985 16.0954 13.252
Pt 14.443 18.5518 12.6161
Pt 17.172 13.8857 10.2205
Pt 20.7629 20.8288 12.2002
Au 14.7673 23.7452 14.3108
Pt 6.84424 18.3443 13.0161
Pt 7.97826 15.4181 13.3646
Au 9.78273 9.35423 9.89492
Pt 15.6112 12.3837 8.75668
Pt 10.0546 12.6437 16.7473
Pt 15.4365 15.6823 12.1627
Pt 14.5808 6.00375 15.3375
Pt 16.6098 13.2557 21.9116
Pt 14.9716 12.326 14.9679
Au 12.5356 23.2866 12.6089
Pt 8.65761 13.1541 12.1424
Pt 15.2488 9.78036 19.1931
Pt 11.756 10.3353 8.3482
Au 25.3044 16.3827 12.4179
Pt 10.8379 18.8165 18.1196
Pt 16.6041 19.0266 7.20201
Pt 19.5138 10.567 9.57493
Au 7.07259 10.7801 13.4286
Pt 19.3423 18.8896 13.6895
Pt 21.6896 18.1178 14.8822
Au 16.632 19.3343 22.7431
Pt 19.2863 17.8902 10.89
Pt 12.7899 7.87704 16.0849
Pt 12.0601 9.65412 14.4001
Pt 20.6422 11.3383 13.7666
Pt 8.50819 20.0875 17.8466
Pt 10.3 7.73875 14.9908
Au 13.134 17.8718 6.08663
Pt 12.0112 10.568 10.9093
Pt 21.6649 9.79718 15.6581
Pt 18.6391 15.3006 11.7203
Au 24.3864 14.1704 13.8802
Pt 19.2946 13.5772 14.0654
Pt 9.58364 10.3823 14.9444
Pt 20.5978 10.0433 18.0066
Au 23.0607 11.1452 17.5304
Pt 15.9197 17.8371 14.8689
Au 8.40355 9.99211 21.0059
Pt 13.9963 16.9241 16.5594
Pt 15.1821 20.4446 10.8765
Pt 15.9229 11.877 17.6572
Pt 18.9998 12.4943 11.6405
Pt 6.77567 17.0061 15.3264
Pt 12.985 12.5275 9.41536
Au 14.394 15.4894 5.27973
Pt 22.7636 16.1314 13.2198
Pt 17.4522 8.80853 20.5555
Au 8.93786 17.0412 21.9309
Pt 12.1883 20.5776 19.7687
Pt 20.9287 12.4345 16.4679
Pt 10.0524 12.0024 21.8977
Pt 6.42256 14.5376 15.4925
Au 11.4601 19.4334 8.17721
Pt 19.3759 21.8071 16.5663
Pt 16.7038 14.4561 7.55166
Au 12.6012 21.6499 10.2062
Pt 20.5254 14.2777 18.6401
Pt 17.1036 21.2182 17.8051
Pt 15.2027 7.92581 9.86592
Pt 23.4046 17.1863 10.6335
Pt 15.52 9.42339 21.9638
Pt 12.8349 19.0119 10.5788
Au 10.6779 9.2534 22.1719
Pt 17.9346 8.51661 9.93068
Pt 10.3569 16.9633 7.62347
Au 18.7029 14.5147 22.926
Pt 12.8553 16.1012 11.3681
Pt 14.9925 8.41238 14.4031
Pt 20.2284 13.4795 9.65747
Pt 14.5373 6.52523 12.0933
Pt 18.2826 20.2826 11.7154
Pt 22.9902 20.1157 13.2141
Au 22.6939 9.67252 13.0344
Pt 16.5388 20.0601 13.5343
Pt 11.4945 16.7848 22.773
Au 8.77842 14.283 22.4323
Pt 13.1364 15.6874 20.8443
Pt 14.4982 20.1064 21.2953
Pt 8.17358 12.7926 14.7691
Pt 15.2567 16.7135 7.56535
Pt 6.89517 15.4479 11.1128
Pt 14.9043 13.6938 19.8203
Au 9.62488 20.0363 20.3746
Pt 13.357 16.6277 13.9767
Pt 12.8495 22.4491 18.0184
Au 17.6262 23.7255 17.3924
Pt 14.7704 20.9865 18.8942
Pt 8.95129 10.8523 18.5861
Pt 15.0263 17.6386 10.2468
Pt 8.03856 15.0494 19.9888
Pt 16.7573 16.2057 16.8799
Pt 16.6729 13.5007 12.9537
Au 12.4313 7.94422 9.89571
Pt 11.418 17.3428 15.8071
Au 6.36736 17.9911 10.3709
Pt 21.1461 15.7877 11.0454
Pt 7.82231 19.3992 15.3543
Pt 14.644 12.9579 11.3608
Pt 21.3557 11.1825 11.2241
Pt 14.0043 14.0017 7.34908
Pt 13.1765 19.1965 14.7589
Pt 15.0769 22.8995 16.9237
Pt 21.4607 13.6018 12.4401
Pt 13.3761 11.6275 18.5442
Pt 17.7631 9.65845 18.0431
Pt 10.3715 19.8767 10.7448
Pt 12.909 21.8917 15.4458
Pt 7.80454 20.101 11.2631
