286
Atoms. Timestep: 20223
Pt 9.82804 12.6632 20.7536
Pt 10.4467 7.03865 17.3416
Au 10.0435 6.39547 14.6704
Pt 8.87773 10.3728 19.8705
Au 8.24536 7.90981 18.7613
Pt 9.36393 12.1958 17.5175
Pt 8.42181 8.16671 15.9899
Au 6.67837 9.36243 14.3325
Pt 10.022 9.62429 17.6091
Pt 11.4181 10.8979 19.5324
Au 7.67145 14.4605 21.2557
Pt 7.43726 14.0443 16.844
Pt 7.46303 10.243 17.5907
Au 6.2549 11.844 15.923
Pt 7.3891 12.5389 19.1633
Pt 8.69573 16.8747 20.2072
Au 6.37789 15.3404 18.9851
Pt 9.74692 16.0658 12.1156
Pt 6.44463 14.1837 14.3801
Au 5.80136 14.1433 11.722
Pt 9.14457 13.175 14.8487
Pt 8.43911 15.8968 14.7968
Au 5.9159 16.2683 15.9845
Pt 7.96509 15.2538 10.1266
Pt 8.93013 17.1973 8.24221
Au 6.49997 18.8975 13.0484
Pt 8.17825 17.8308 10.8301
Pt 8.03267 20.7617 14.2816
Au 9.44548 22.8432 13.364
Pt 7.02199 16.34 12.6982
Pt 9.70424 19.5032 9.44068
Pt 10.9501 8.88652 15.3164
Pt 12.575 6.81546 15.8763
Au 10.0827 8.38466 10.8344
Pt 11.8942 11.3149 16.8645
Pt 12.7378 6.63496 18.5466
Au 10.8691 9.87571 21.8728
Pt 9.28398 8.79674 13.3708
Pt 11.7588 9.73851 12.4873
Au 7.52881 9.7051 11.5872
Pt 11.1775 11.48 14.4159
Pt 9.03366 14.518 19.0111
Pt 14.4542 11.9512 16.2623
Au 12.4085 13.6735 15.74
Pt 11.4506 13.5237 18.4927
Pt 12.5265 13.1457 20.8821
Pt 13.7762 11.4057 18.8679
Au 11.5136 12.2051 23.1567
Pt 10.8144 8.24767 19.687
Au 9.70461 14.2779 22.9547
Pt 7.04895 11.8183 13.3624
Pt 7.44524 12.3124 10.7691
Au 8.28446 12.8357 8.31589
Pt 8.77384 10.6863 15.2854
Pt 11.1753 15.797 14.3196
Pt 13.5677 11.7813 13.4204
Au 14.4072 13.2739 11.267
Pt 10.1257 14.821 16.5657
Pt 10.7044 16.5567 18.414
Pt 11.036 15.2637 20.6775
Au 12.7193 16.3547 16.6484
Pt 8.17161 16.5986 17.473
Pt 10.2394 16.8743 22.5137
Au 8.85883 19.4215 20.9783
Pt 10.7601 16.6776 9.79041
Pt 10.0367 14.78 8.19454
Au 13.029 17.9652 5.61685
Pt 8.37314 13.9974 12.5743
Pt 11.2249 13.7031 12.8086
Pt 9.85706 13.5456 10.501
Au 15.3393 17.6607 9.53823
Pt 12.0352 18.2499 13.921
Pt 9.08018 18.2253 13.6138
Pt 10.1989 17.6657 15.998
Au 14.372 18.3562 12.3219
Pt 7.71711 18.9209 18.3915
Pt 11.1005 20.792 20.4317
Au 7.04161 20.9283 16.7575
Pt 11.2388 18.517 7.66693
Pt 11.9988 20.8057 8.99877
Pt 13.7743 19.3909 7.7233
Pt 12.7066 18.469 10.0392
Pt 8.53865 20.2735 11.7899
Pt 14.7923 20.2549 10.1975
Au 14.442 21.9966 8.06209
Pt 10.6874 18.6434 11.646
Pt 7.50647 18.4447 15.6703
Au 9.08513 22.777 16.2058
Pt 10.5525 21.6549 11.0241
Pt 12.6676 20.4017 11.804
Pt 12.1631 7.33967 13.2679
Pt 12.7884 7.96104 10.6698
Au 13.9714 5.84136 11.6329
Pt 13.3153 9.58762 14.9043
Pt 15.1206 7.53255 18.694
Au 14.6718 5.35049 16.9284
Pt 11.8715 11.9237 10.9935
Pt 12.5596 14.02 7.26146
Au 13.0219 11.162 6.69249
Pt 9.46887 10.8461 9.89384
Pt 9.51526 11.3965 12.4426
Pt 15.8679 10.0786 14.6743
Au 17.1299 13.6821 11.8965
Pt 14.9725 7.91763 16.1026
Pt 12.8082 8.9985 17.5822
Pt 17.535 8.23811 19.0483
Au 13.7613 14.581 13.6039
Pt 13.3361 8.8001 20.1811
Pt 13.5068 10.8403 21.6792
Au 15.7573 8.05394 21.3906
Pt 11.2336 16.2067 6.51682
Pt 14.1864 15.6431 6.12222
Au 18.2742 17.4157 6.09491
Pt 11.0716 12.2855 8.36395
Pt 12.2482 14.4464 9.93324
Pt 13.9166 12.081 8.94473
Au 14.7506 14.846 8.97425
Pt 17.2002 8.9601 12.1036
Pt 15.0165 14.691 16.2829
Pt 15.5882 9.98144 17.543
Au 15.3519 15.9105 11.7301
Pt 13.9005 14.1246 18.6259
Pt 11.225 18.1187 20.5271
Pt 15.797 10.2477 20.0544
Au 17.5012 14.919 20.3437
Pt 15.1558 12.8798 20.724
Pt 12.2878 14.9266 22.9427
Pt 15.9977 11.0575 22.5807
Au 15.8214 16.0337 18.6492
Pt 14.1763 13.0855 23.1304
Au 14.6846 15.7189 23.9216
Pt 15.5833 17.7129 6.83756
Pt 16.2947 19.9858 7.93549
Pt 17.8482 17.7848 8.59891
Pt 13.083 16.6692 8.22742
Pt 17.5765 20.3499 10.073
Pt 17.2839 15.434 9.7891
Au 18.9502 19.9364 7.5673
Pt 12.4478 16.3402 11.8842
Pt 12.1862 19.4575 16.2988
Pt 15.9305 11.2162 12.2503
Au 14.3997 16.985 14.6493
Pt 10.2187 19.1152 18.3893
Pt 9.63046 20.2281 16.1717
Pt 13.0996 16.6172 19.3665
Au 14.6497 18.3092 17.3811
Pt 12.8279 19.449 18.8776
Pt 12.9947 17.3068 22.2023
Au 11.233 19.4046 22.8317
Pt 16.0299 22.5337 10.2204
Pt 13.2365 22.5979 10.3779
Pt 17.6434 22.2796 12.4023
Pt 14.7949 22.0537 12.4162
Pt 11.6358 22.1996 15.4351
Pt 13.5136 20.5843 14.2734
Au 14.0163 24.5387 12.0478
Pt 10.6595 20.4835 13.6576
Pt 11.3404 21.6415 17.8942
Au 8.8007 21.4146 18.8197
Pt 12.1015 22.7699 12.8874
Pt 13.882 23.4177 14.6975
Pt 15.4581 7.84703 10.3183
Pt 19.3958 8.73877 14.4624
Au 17.7681 6.55126 9.96354
Pt 14.4859 6.20264 14.2062
Pt 17.1321 6.50845 16.965
Au 16.7002 4.93261 14.821
Pt 15.834 10.9213 7.20897
Pt 14.181 9.25465 8.44042
Au 17.8494 13.0559 6.49724
Pt 11.8307 9.93038 9.22074
Pt 13.8903 10.2857 10.9807
Pt 16.1953 10.3489 9.74867
Au 16.8162 8.44075 7.92817
Pt 14.6093 8.48351 12.8231
Pt 17.7066 8.97512 16.4696
Pt 19.9749 9.03407 19.3805
Au 15.9668 12.9748 14.3555
Pt 16.9585 7.59155 14.3941
Pt 18.2583 10.7961 18.6149
Au 22.2528 8.83964 18.0615
Pt 15.0518 13.2693 6.71611
Pt 16.6671 15.3991 7.16862
Pt 19.1771 15.2188 7.71394
Pt 16.6809 12.954 8.9993
Pt 19.6767 16.4387 10.0289
Pt 20.3566 17.715 12.2134
Au 20.6031 17.583 7.69503
Pt 18.2207 11.5145 10.8472
Pt 18.9224 15.531 12.4538
Pt 16.2603 12.6941 18.3813
Au 18.7281 13.6141 14.408
Pt 19.3196 13.2755 19.0266
Pt 17.6105 12.2017 20.7573
Pt 20.1101 12.5046 16.5644
Au 17.686 14.3522 16.9177
Pt 18.031 9.63337 21.2921
Pt 16.7301 13.8998 22.7122
Au 18.5247 11.6536 23.2201
Pt 20.0184 19.1371 9.90485
Pt 16.3954 19.9475 12.5145
Pt 19.03 19.905 12.2486
Pt 17.5756 17.7765 11.2543
Pt 15.7559 19.237 15.0548
Pt 17.9766 17.9243 13.8642
Au 19.8004 21.8492 10.6445
Pt 16.6974 15.5409 14.0727
Pt 15.0168 17.9589 20.4083
Pt 20.6119 14.8778 17.4006
Au 16.7789 17.081 16.3055
Pt 14.4328 15.2706 21.222
Pt 13.5323 19.9328 21.4215
Pt 19.571 13.6646 21.7311
Au 18.8548 15.8625 22.8317
Pt 16.4417 16.6834 22.1867
Au 14.9923 18.6279 23.3065
Pt 15.944 21.8014 14.7026
Pt 15.9413 23.705 16.3483
Pt 18.1695 20.4879 14.6741
Pt 14.2105 21.1513 16.8528
Pt 15.6221 22.8665 18.6967
Pt 15.2748 20.3171 19.2443
Au 16.2453 24.3437 13.5695
Pt 13.2959 22.0635 19.6164
Pt 16.7469 19.5281 21.4661
Au 15.3648 21.9644 21.4123
Pt 13.3234 23.4408 17.3013
Pt 16.9087 20.7621 17.0805
Pt 18.6315 8.98756 9.83837
Pt 19.1944 7.28428 12.1987
Au 21.2079 8.33162 10.3603
Pt 16.5248 6.31399 12.2904
Pt 21.8797 8.65027 15.4595
Au 19.1876 6.07972 14.737
Pt 18.3474 11.0661 8.17208
Pt 19.3917 13.7067 9.93953
Pt 20.5334 10.9736 9.6676
Pt 19.8076 9.88608 12.0804
Pt 20.2083 12.6986 12.2596
Pt 22.5604 11.0362 16.3987
Au 20.5217 12.8335 7.68109
Pt 18.2016 11.0737 13.7268
Pt 20.0477 9.97408 16.7656
Au 19.865 7.28934 17.1727
Pt 21.6265 15.156 8.92424
Pt 21.3994 15.1133 11.8023
Pt 22.0696 12.9892 10.2201
Pt 21.4006 13.8413 14.7258
Pt 21.2879 16.3701 14.2099
Pt 22.6716 13.3882 17.5153
Au 23.7821 15.2129 10.8299
Pt 17.5283 11.6676 16.2169
Pt 21.2931 11.3455 18.6948
Au 22.5917 16.0683 18.804
Pt 22.1003 17.4279 10.1664
Pt 20.5063 19.0754 14.4838
Pt 23.5843 15.2269 13.6065
Pt 21.5808 19.7465 17.0078
Pt 18.677 16.5364 18.2183
Pt 19.1442 16.1201 15.432
Au 21.8402 20.0421 11.9964
Pt 20.0782 11.2568 20.9123
Pt 20.2813 15.6561 20.1155
Au 21.893 13.5275 20.1521
Pt 18.916 18.8249 16.6002
Pt 20.2014 21.8401 13.4733
Pt 22.9901 17.5375 12.5638
Pt 17.38 18.8016 18.8396
Pt 17.5447 21.5277 19.8574
Pt 20.4871 18.2845 19.0958
Au 22.4441 20.8777 14.6708
Pt 18.4864 17.4921 20.768
Au 19.4014 19.9481 21.0074
Pt 18.1707 22.8859 17.5928
Pt 19.4787 20.6585 18.4322
Pt 21.69 8.42963 12.9895
Pt 22.2508 10.6515 11.6368
Pt 20.9033 11.1118 14.2783
Pt 23.3506 10.5155 13.9792
Pt 22.9128 12.9024 12.7057
Pt 23.7789 12.9767 15.1564
Pt 23.0623 15.6005 16.1401
Pt 22.9459 18.2072 15.109
Pt 21.1344 17.2977 16.78
Pt 20.0556 21.5771 16.0897
Pt 18.2429 23.1192 14.9623
