286
Atoms. Timestep: 20202
Pt 9.46684 14.4991 21.122
Pt 10.7708 8.4271 18.0254
Au 7.89484 8.21321 17.4635
Pt 7.73289 10.89 18.4421
Au 8.92402 8.98171 19.8849
Pt 8.88043 12.6003 16.5232
Pt 9.06866 10.0712 16.1554
Au 7.47873 8.63044 14.5506
Pt 10.3475 10.9902 18.2944
Pt 9.39796 11.4585 20.8086
Au 7.03575 12.5456 20.5199
Pt 6.78682 13.363 15.1142
Pt 6.50875 10.9053 16.0387
Au 5.38235 11.7972 13.322
Pt 6.33671 13.0534 17.7902
Pt 6.9534 14.959 19.5446
Au 4.37049 12.8212 15.8409
Pt 8.81409 16.0403 12.0275
Pt 4.99378 14.4441 13.5822
Au 5.47745 13.9167 10.7484
Pt 9.24901 13.9481 14.2441
Pt 7.2106 15.8988 14.4443
Au 4.5004 16.9486 14.1783
Pt 7.47145 15.6102 9.85164
Pt 8.84112 17.6137 8.55537
Au 5.85934 19.0512 13
Pt 7.71776 18.1862 10.9293
Pt 7.96413 20.2994 15.3308
Au 9.16633 22.4045 14.0417
Pt 6.12137 16.3854 12.0554
Pt 9.67833 19.7873 10.0697
Pt 9.94387 7.6272 15.6459
Pt 12.6922 7.44353 16.5336
Au 10.5134 7.16686 11.8676
Pt 11.6239 9.73277 15.8278
Pt 13.4648 8.22526 19.0351
Au 14.3453 8.45762 21.4895
Pt 9.97361 9.34478 13.6189
Pt 12.2991 10.5409 13.0368
Au 8.17124 9.34082 11.7023
Pt 10.6917 11.8543 14.7626
Pt 9.0949 13.3803 18.8812
Pt 13.3793 11.8446 15.1962
Au 11.932 14.2699 14.8221
Pt 11.7487 12.9738 17.2864
Pt 11.6313 12.441 20.2211
Pt 13.7896 10.9096 20.2507
Au 12.5487 10.5155 22.613
Pt 11.531 9.64037 20.282
Au 10.9058 12.7493 22.7562
Pt 7.2332 11.8105 11.1949
Pt 9.22891 11.0941 9.71406
Au 7.42328 13.0308 8.73798
Pt 7.95869 11.2721 13.8786
Pt 10.0307 16.4058 14.2705
Pt 13.2558 13.1288 12.7374
Au 14.9583 12.6819 10.6997
Pt 7.80092 15.0696 16.9139
Pt 9.13675 16.2157 18.8929
Pt 10.3239 15.2566 16.7118
Au 13.0201 15.7774 16.9337
Pt 5.34426 15.4104 16.3121
Pt 11.3199 14.8756 19.1944
Au 8.01865 16.8699 21.1909
Pt 10.5286 16.5996 10.0737
Pt 9.30728 14.936 8.08947
Au 12.8409 18.3812 6.1847
Pt 7.3949 13.9117 12.4836
Pt 11.0415 14.562 12.2069
Pt 9.33753 13.7615 10.4189
Au 15.3094 17.3949 9.84803
Pt 12.2652 17.0993 13.1469
Pt 8.15272 18.1375 13.7578
Pt 8.76421 17.6324 16.4591
Au 14.9856 17.7759 12.5872
Pt 6.71685 17.1653 18.1827
Pt 8.78177 18.7017 19.3164
Au 7.01957 19.8109 17.708
Pt 11.2112 18.8283 8.30136
Pt 12.2164 20.8522 10.0192
Pt 13.8281 19.5584 8.46594
Pt 12.5362 18.3608 10.6514
Pt 8.28435 20.3523 12.4378
Pt 14.8214 19.9299 11.0664
Au 14.9793 22.001 9.55209
Pt 10.2269 18.3808 12.0908
Pt 6.28614 18.0863 15.7034
Au 8.9251 21.6551 18.4964
Pt 10.6218 21.4406 11.9746
Pt 12.4389 19.7894 12.7968
Pt 12.0404 7.66126 13.951
Pt 12.5794 7.92444 10.0687
Au 13.1259 6.03324 12.0612
Pt 13.971 9.30697 14.8725
Pt 16.422 7.62715 19.0428
Au 14.7807 6.16479 17.4971
Pt 11.7771 12.2461 10.5858
Pt 12.1649 13.9457 6.71674
Au 12.6434 11.2692 6.19577
Pt 10.8899 9.61951 11.0858
Pt 9.81933 11.9268 12.2622
Pt 16.0759 10.925 15.6051
Au 17.3186 13.2951 11.9813
Pt 15.0174 8.9541 17.1645
Pt 12.9572 10.6168 17.823
Pt 18.6374 9.07715 19.9015
Au 14.1456 15.4361 14.077
Pt 16.1552 9.9475 19.9307
Pt 15.3963 10.7611 22.4237
Au 17.0843 8.66115 22.0247
Pt 11.0593 16.4266 7.06954
Pt 13.8074 15.8778 6.30772
Au 18.0308 17.2477 5.92223
Pt 10.4582 12.5225 7.99674
Pt 11.7618 14.466 9.19026
Pt 13.539 12.1677 8.46328
Au 14.4944 14.7279 8.77694
Pt 16.5325 9.27061 11.5016
Pt 15.712 15.8762 16.2132
Pt 15.4722 11.6012 18.0537
Au 15.5257 15.2179 11.7099
Pt 14.4778 13.5508 16.7248
Pt 10.7956 17.1571 20.924
Pt 15.8955 12.5754 20.4738
Au 16.0841 14.9726 18.7993
Pt 13.7374 13.5601 19.3206
Pt 12.1967 14.9012 21.7177
Pt 16.3455 13.1411 23.0523
Au 13.5072 16.2055 19.6409
Pt 13.7532 12.9201 22.1748
Au 14.4979 15.1071 23.8527
Pt 15.4036 17.813 7.12554
Pt 16.3977 19.6723 8.77213
Pt 17.7163 17.4141 8.49203
Pt 13.0352 16.9246 8.54598
Pt 17.7277 20.7733 10.5303
Pt 17.1449 15.1401 9.64307
Au 18.6773 19.5806 7.3723
Pt 13.0838 15.7307 11.0291
Pt 11.4662 17.8017 15.8012
Pt 14.9993 10.9774 12.9083
Au 14.0596 18.0054 15.1093
Pt 11.3062 17.6949 18.3893
Pt 10.0852 19.7114 17.1806
Pt 12.9255 18.7806 20.1533
Au 14.2088 18.1837 17.7525
Pt 10.736 20.2212 19.9195
Pt 13.3425 17.1647 22.2717
Au 11.691 19.4268 22.3878
Pt 16.0504 22.2048 12.1925
Pt 13.4454 22.147 11.9281
Pt 18.5954 22.1112 12.7518
Pt 14.6194 20.415 13.8394
Pt 10.5316 22.0186 16.3251
Pt 12.4676 20.223 15.5765
Au 17.3377 23.9786 14.4071
Pt 10.2424 19.8464 14.3241
Pt 12.6278 20.498 18.13
Au 11.5055 22.783 18.8574
Pt 11.9824 22.2871 14.0925
Pt 14.5816 22.9931 14.3604
Pt 15.2149 7.88105 9.74052
Pt 18.6314 9.08359 15.1816
Au 17.6945 6.61532 10.3185
Pt 14.5751 6.73422 14.7204
Pt 16.9416 7.29683 16.3263
Au 17.0731 5.67752 14.2605
Pt 15.4831 11.0181 6.6136
Pt 13.8132 9.31499 7.87259
Au 17.5653 13.0423 5.92058
Pt 11.5631 10.2296 8.61282
Pt 13.5738 10.2947 10.5352
Pt 15.747 10.4513 9.14984
Au 16.4087 8.56709 7.3023
Pt 13.9725 8.49545 12.3195
Pt 17.4997 9.67961 17.5523
Pt 20.5016 10.8382 20.3564
Au 15.8079 13.3255 14.3062
Pt 16.3388 8.59445 14.0542
Pt 18.1354 11.87 19.0349
Au 22.6452 10.4341 18.4839
Pt 14.7007 13.4 6.30501
Pt 16.3986 15.3721 6.93892
Pt 18.9237 14.9607 7.46374
Pt 16.5369 12.9554 8.34214
Pt 19.5907 16.1843 9.80236
Pt 20.5577 17.3794 11.9313
Au 20.4227 17.3077 7.45482
Pt 17.7616 11.4474 10.3015
Pt 18.8429 15.3946 12.2038
Pt 17.2072 13.4259 16.8068
Au 18.6344 13.7127 14.3687
Pt 18.8622 14.5651 18.6221
Pt 17.8291 14.0956 20.9528
Pt 20.598 12.4893 18.2922
Au 18.4773 15.9848 16.1391
Pt 18.0538 11.3118 21.6295
Pt 17.5219 15.4709 23.1254
Au 19.1348 13.3155 23.2166
Pt 19.819 18.9084 9.69094
Pt 16.9828 19.6801 12.8317
Pt 19.4999 19.6494 12.195
Pt 17.713 17.7414 11.2031
Pt 16.6694 18.6182 15.2682
Pt 18.8303 17.7108 13.9986
Au 20.3462 21.5866 10.6434
Pt 16.8532 16.0965 13.8444
Pt 15.4176 17.8568 20.3522
Pt 21.5053 15.0093 18.6502
Au 16.9123 17.5052 17.8818
Pt 15.2815 15.1536 21.3967
Pt 14.4624 19.6546 22.1503
Pt 19.966 15.8745 21.4095
Au 17.6981 16.8106 20.6919
Pt 15.8835 17.4054 22.9363
Au 18.7704 17.8302 23.0567
Pt 16.7489 21.5092 14.8057
Pt 15.916 23.0855 16.7208
Pt 19.0049 20.3902 14.7397
Pt 14.8153 20.6603 16.5701
Pt 14.4201 22.5757 18.8118
Pt 15.2734 20.2124 19.3159
Au 20.1161 23.107 14.6799
Pt 13.0602 21.3503 20.6976
Pt 17.0512 19.4887 21.8361
Au 15.7903 21.9167 21.3241
Pt 13.1068 22.7415 16.5419
Pt 17.2466 20.3254 17.1691
Pt 18.1037 8.94539 9.34119
Pt 18.3896 7.49825 12.741
Au 20.3628 7.90414 10.5441
Pt 15.7994 6.69094 12.1616
Pt 21.2076 8.90942 15.7958
Au 19.5972 6.61984 15.0555
Pt 18.0561 10.9745 7.62735
Pt 19.2644 13.4929 9.65728
Pt 20.1439 10.6865 9.41303
Pt 19.1268 9.79979 11.802
Pt 20.0017 12.4087 11.8868
Pt 21.6375 11.4952 16.1003
Au 20.2616 12.5734 7.36251
Pt 17.6213 11.0821 13.4933
Pt 20.1013 9.91736 17.8703
Au 19.2203 7.40392 17.7098
Pt 21.4645 14.8308 8.63589
Pt 21.3151 14.7566 11.5268
Pt 21.8456 12.6014 9.88989
Pt 21.3547 13.2451 14
Pt 20.9674 15.8548 14.1031
Pt 23.2044 12.9421 17.5459
Au 23.6737 14.8437 10.5293
Pt 18.8872 11.5957 16.1916
Pt 22.599 12.7083 20.0117
Au 24.0738 14.9696 19.163
Pt 22.0567 17.1051 9.80476
Pt 21.2044 18.6453 14.2925
Pt 23.4339 14.8374 13.4006
Pt 21.1185 16.9368 16.5048
Pt 19.6038 17.0527 18.7337
Pt 20.4914 14.145 16.3025
Au 22.1745 19.5547 11.2127
Pt 20.252 13.3468 20.797
Pt 21.978 17.1176 20.0587
Au 22.4545 14.9045 21.4434
Pt 19.2967 18.7482 16.7039
Pt 21.2891 21.1142 13.3867
Pt 23.0497 17.1261 12.2822
Pt 17.8735 19.3407 19.438
Pt 17.1349 22.1343 19.0014
Pt 21.3972 19.0571 18.4076
Au 23.5892 19.57 13.6128
Pt 19.9271 18.7137 20.7754
Au 18.7456 21.3405 21.042
Pt 18.5334 22.507 16.6317
Pt 19.6364 20.9636 18.5103
Pt 20.8291 8.40667 13.2806
Pt 21.7153 10.2994 11.5466
Pt 20.2006 10.8759 13.9883
Pt 22.7273 10.4163 13.9592
Pt 23.0303 12.5071 12.1854
Pt 23.7076 12.677 14.9037
Pt 23.0024 14.988 16.1354
Pt 23.3916 17.1415 14.8777
Pt 23.3035 17.1132 17.782
Pt 22.836 19.2239 16.2603
Pt 20.9599 20.9309 16.2425
