286
Atoms. Timestep: 20394
Pt 16.23 14.3154 10.4898
Pt 9.2779 17.5536 15.5185
Au 12.8791 6.22436 9.76706
Pt 19.68 15.0736 19.3634
Au 5.37239 15.4876 14.8633
Pt 12.2139 8.82372 15.1519
Pt 13.8365 8.95741 17.4555
Au 12.3634 11.9414 23.7613
Pt 17.5915 10.5756 22.3574
Pt 8.97222 13.1647 16.0832
Au 17.3387 15.4244 6.04769
Pt 16.7073 18.3768 14.9367
Pt 16.1117 10.0486 10.75
Au 24.0037 14.5646 12.1819
Pt 18.4057 21.3438 9.76767
Pt 12.821 23.4359 14.7467
Au 8.11446 9.23814 17.5741
Pt 10.8821 17.7071 17.9062
Pt 9.06521 17.359 19.9644
Au 13.308 24.3018 12.1724
Pt 17.1347 16.3495 12.7474
Pt 19.265 19.1615 16.5032
Au 10.7406 16.2064 22.4935
Pt 16.4384 9.54678 18.8203
Pt 16.4189 13.7586 13.1547
Au 9.51384 19.9162 9.1168
Pt 13.1089 11.3182 7.48302
Pt 14.5798 8.09448 10.2628
Au 20.6021 13.921 7.5844
Pt 11.6109 8.48124 10.4543
Pt 11.6563 13.1648 14.9261
Pt 14.0593 18.5097 21.3804
Pt 9.29425 13.4209 11.221
Au 11.6944 21.335 7.88867
Pt 19.2516 21.3423 12.2801
Pt 10.638 18.2869 11.1076
Au 13.6136 23.2917 8.31221
Pt 16.3003 15.5221 23.8776
Pt 13.0351 18.5039 19.0236
Au 10.8015 17.9621 6.5257
Pt 20.2566 16.7503 21.4158
Pt 12.5555 11.0209 13.2041
Pt 7.97474 10.8441 15.3975
Au 10.8365 10.1876 8.37611
Pt 19.9191 11.9909 12.3471
Pt 18.9263 19.053 11.1124
Pt 13.6827 16.167 23.1923
Au 19.7117 10.9921 7.72109
Pt 14.5635 12.3415 11.6421
Au 23.2323 9.53118 17.2387
Pt 8.27965 9.22426 13.1516
Pt 20.7603 17.8853 9.68702
Au 15.3886 7.23254 19.6499
Pt 16.7714 14.5482 19.7372
Pt 11.0628 13.7149 17.6526
Pt 9.23518 21.4847 14.2674
Au 11.7067 6.65257 16.7405
Pt 16.6837 18.9417 12.3717
Pt 14.9519 11.334 22.9715
Pt 15.4524 14.9309 17.5751
Au 16.9583 23.2476 15.9663
Pt 14.9582 13.9356 21.5105
Pt 12.0997 16.0865 8.65416
Au 14.232 20.5159 23.2232
Pt 9.18214 16.6815 12.7392
Pt 17.2861 11.8118 8.77039
Au 8.86497 21.8124 17.0851
Pt 13.6536 10.9696 15.735
Pt 11.9573 18.7445 8.76574
Pt 15.9983 11.6777 20.5712
Au 16.8335 7.43345 17.2218
Pt 17.67 21.3583 20.2796
Pt 18.6292 10.5459 19.7867
Pt 8.45528 18.8652 17.9426
Au 19.9946 7.7099 11.1502
Pt 11.2774 18.2164 20.8485
Pt 13.513 8.69844 12.6045
Au 22.0863 18.8064 17.4319
Pt 14.0585 22.2919 10.6321
Pt 14.2859 15.1853 12.5325
Pt 15.8133 16.3854 21.5552
Pt 19.7681 10.286 14.6406
Pt 21.1473 11.7433 20.8743
Pt 16.9534 17.2557 8.04274
Au 13.3108 19.3296 6.31305
Pt 15.5775 16.8842 10.6015
Pt 14.4197 22.0249 16.1954
Au 7.84936 15.831 10.186
Pt 16.4945 18.9408 20.8881
Pt 21.4208 18.786 12.2157
Pt 14.7398 12.4838 9.1405
Pt 10.8673 15.2655 6.58576
Au 17.043 20.4328 22.9179
Pt 18.1978 16.7455 10.2548
Pt 9.92914 14.3841 13.5124
Au 6.06361 10.8243 13.4319
Pt 10.5594 11.0276 22.0493
Pt 17.3622 17.2159 17.3124
Au 16.0169 24.0378 11.1826
Pt 10.8283 8.99762 12.9322
Pt 14.057 20.4084 8.76319
Pt 11.9914 6.59208 12.193
Au 8.94997 9.13374 10.2528
Pt 12.0596 13.4581 12.1846
Pt 14.9132 8.48656 15.1494
Pt 11.8564 20.9977 14.67
Au 11.4904 23.1314 10.0727
Pt 13.1874 16.1713 20.603
Pt 20.3397 7.90485 13.9068
Au 6.26239 13.7156 19.6984
Pt 19.1031 19.2755 21.2086
Pt 12.3817 19.1421 12.9257
Au 21.3239 20.8009 13.9668
Pt 7.99402 11.2015 11.5896
Pt 18.747 16.7894 14.9262
Pt 15.4576 18.1593 23.5418
Au 8.3392 15.0574 21.1896
Pt 17.3231 12.3503 18.268
Pt 13.5818 15.6038 15.1569
Pt 13.8375 21.5193 13.0082
Au 7.22054 20.2491 12.9363
Pt 9.58105 8.74075 15.3694
Pt 15.2906 23.4659 13.8482
Pt 19.9567 9.67045 21.7145
Au 9.36991 7.03499 11.8628
Pt 19.0772 10.1361 10.2078
Pt 21.1059 11.0968 16.7683
Pt 17.9073 19.3567 18.7041
Au 12.9251 9.46402 22.4978
Pt 23.2778 14.2609 14.7267
Au 5.11586 13.4187 13.0231
Pt 8.9539 15.9767 17.624
Pt 16.9593 13.0457 23.0995
Pt 16.1793 13.021 15.8483
Pt 15.2336 9.99007 8.2693
Pt 11.7799 12.8418 9.53719
Pt 22.401 16.3878 11.0096
Au 15.5303 17.543 5.75613
Pt 9.81525 19.0836 13.5821
Pt 11.8264 16.4023 13.2356
Pt 20.003 12.5059 18.6611
Au 19.0291 6.57171 15.8467
Pt 15.6984 12.9111 6.85683
Pt 14.3583 19.7283 14.8171
Pt 20.6398 14.1904 21.82
Au 21.036 21.2005 16.6444
Pt 10.7343 11.035 11.0933
Pt 10.8031 10.9946 15.9677
Au 14.7418 14.809 5.27154
Pt 19.4326 16.5208 7.76076
Pt 21.3591 14.0031 17.032
Pt 7.05327 17.7205 13.8674
Pt 10.8254 12.6921 7.1819
Pt 10.8264 15.4517 19.7766
Pt 17.7286 23.1672 13.1643
Au 6.71856 16.4037 19.1584
Pt 18.9241 12.3849 16.1703
Pt 18.7186 14.1592 14.2641
Au 17.706 8.98023 8.27821
Pt 15.3425 10.5896 13.4741
Pt 22.8195 16.3885 16.2759
Pt 16.0843 22.0266 8.9085
Pt 9.86528 11.5239 13.5546
Au 6.64825 13.3224 10.7453
Pt 8.01233 15.3524 15.0107
Pt 23.3889 12.0572 16.0045
Au 17.3346 7.47955 10.4752
Pt 19.5309 12.1331 22.9476
Pt 20.2035 18.0602 19.1518
Au 8.21418 12.0739 20.8791
Pt 22.1312 16.3252 18.8466
Pt 12.3266 11.3424 18.2295
Pt 19.958 16.6875 12.4476
Au 14.3629 6.32889 17.0096
Pt 12.8648 15.9909 17.8111
Pt 13.2629 10.4996 10.2348
Pt 21.1884 9.77284 12.3102
Au 18.255 6.52121 12.9993
Pt 12.9084 19.9167 16.9607
Pt 22.3517 10.005 14.6445
Au 12.3108 18.5082 23.3518
Pt 13.3307 6.5639 14.4118
Pt 15.0895 21.1619 20.806
Pt 11.5772 22.206 17.0175
Pt 13.3723 13.8185 19.3725
Pt 14.5647 17.5567 13.4049
Pt 14.0328 9.67613 19.8861
Au 21.6647 11.015 10.0471
Pt 17.4389 12.0482 11.4015
Pt 21.2122 18.1839 14.9226
Pt 12.1343 17.9579 15.3782
Au 8.80416 11.8903 9.02002
Pt 7.66934 12.9991 13.5957
Pt 17.9226 17.606 22.8087
Pt 13.1486 16.5823 6.38453
Au 20.9343 20.5453 10.1536
Pt 20.1988 16.5612 17.0838
Pt 11.4861 9.74215 20.1445
Au 23.9287 14.2615 17.6227
Pt 22.7473 11.8281 18.6136
Pt 16.4755 21.0592 14.0607
Pt 14.1264 13.0619 14.1535
Pt 6.96786 15.3324 12.574
Pt 15.2358 19.7038 18.5716
Pt 7.70329 19.7211 15.5506
Au 20.3745 20.7187 19.2789
Pt 10.8112 15.5246 10.902
Pt 18.8751 21.5045 15.0337
Pt 21.1597 12.6395 14.5749
Au 14.6584 21.7043 6.50969
Pt 18.5327 21.7627 17.6915
Pt 13.1162 13.9521 7.33099
Pt 16.4584 21.4538 11.5277
Au 16.107 6.09609 14.7039
Pt 16.245 15.6767 15.141
Au 14.6197 5.9724 12.0454
Pt 12.3494 14.0957 22.0798
Pt 15.9518 22.2312 18.3877
Pt 16.5347 19.3573 9.74911
Pt 13.5136 13.4641 16.7344
Pt 9.71189 17.1654 8.85845
Pt 21.3102 14.2946 12.4171
Au 12.9962 8.51718 8.08769
Pt 15.5875 9.08745 21.7376
Pt 7.20967 11.8901 17.8039
Au 22.9102 11.9862 12.583
Pt 15.2416 15.2964 8.03656
Pt 19.6529 12.7535 9.79796
Pt 12.4904 20.5024 21.0323
Pt 16.038 8.09366 12.733
Au 16.9989 10.6459 6.31226
Pt 18.3227 9.43933 12.5
Pt 14.3708 13.7188 23.9598
Au 9.88268 13.4695 22.7786
Pt 20.4052 15.2868 9.86667
Pt 8.73546 13.7988 18.8762
Pt 8.09242 18.4246 11.1994
Pt 20.8993 15.3727 14.798
Pt 10.8443 12.8007 20.2269
Pt 11.979 20.6171 10.6956
Au 8.88625 9.55062 20.1723
Pt 17.8364 8.34712 20.7838
Pt 18.2379 14.7214 17.091
Au 18.3994 12.9459 6.34944
Pt 19.017 19.1768 13.7517
Pt 15.3228 17.0577 19.1186
Pt 13.0188 17.2316 10.9158
Pt 17.6618 8.62613 14.8782
Pt 18.8067 19.1222 8.39729
Pt 6.72138 14.5549 17.1548
Au 19.2804 7.65239 18.651
Pt 18.6796 14.4262 11.6178
Pt 13.5659 14.6482 10.1156
Au 5.82049 12.6409 15.5663
Pt 21.0129 9.73155 19.0549
Pt 16.6395 20.3851 16.5426
Pt 14.8396 11.7262 18.1962
Pt 9.54793 20.8217 11.6358
Pt 6.78617 17.2647 16.5361
Pt 14.3814 19.5124 11.2307
Au 22.4668 13.6027 10.0461
Pt 14.686 17.7044 16.5953
Pt 13.174 11.7846 21.0618
Au 10.2638 23.6079 15.2077
Pt 9.66961 11.3246 18.3407
Pt 18.7102 9.84703 17.2265
Pt 16.314 10.4463 16.2628
Pt 13.3528 21.6353 18.8535
Pt 10.909 15.5707 15.7923
Pt 22.1068 13.9933 19.7445
Au 10.4776 6.48838 14.3322
Pt 11.2924 22.5251 12.6735
Au 12.624 7.36502 19.2867
Pt 16.2252 19.7229 7.2569
Pt 17.6457 11.5585 14.016
Pt 10.9417 8.99438 17.7131
Pt 9.71342 14.4719 8.76451
Pt 14.3777 17.8111 8.44146
Pt 10.3058 19.8198 16.2786
Pt 17.9656 16.926 20.0056
Pt 22.7504 16.6379 13.4947
Pt 18.2367 15.1093 22.1201
Pt 18.4789 12.8898 20.7844
Pt 20.846 8.48035 16.4524
Pt 10.8146 20.223 18.8941
Pt 17.9215 14.4905 8.56233
