286
Atoms. Timestep: 20124
Pt 6.95382 11.7917 19.087
Pt 9.96504 8.65781 18.9654
Au 8.24226 7.89969 16.9348
Pt 6.40365 10.2698 17.0707
Au 7.34178 9.1117 19.2694
Pt 7.92569 12.2183 16.0262
Pt 7.60348 9.60179 14.8987
Au 6.21564 9.93917 12.4099
Pt 9.09914 10.4503 17.3797
Pt 9.14765 10.9043 20.1855
Au 8.4918 13.3536 21.14
Pt 6.32984 14.0029 14.6194
Pt 5.60933 11.4324 14.7993
Au 5.18663 12.7287 12.4163
Pt 5.70441 12.915 17.095
Pt 6.9165 14.4545 19.0389
Au 5.15966 15.464 16.9622
Pt 8.30502 16.2424 13.063
Pt 5.65948 15.5891 12.6848
Au 5.85048 14.3424 10.0962
Pt 9.25652 13.8767 14.3771
Pt 6.7214 16.6954 15.197
Au 6.0435 19.2893 15.4848
Pt 7.09161 16.6231 10.5949
Pt 8.46878 18.648 9.12647
Au 6.22869 19.4216 10.5423
Pt 8.44491 18.6088 11.7384
Pt 7.14689 20.6405 12.98
Au 8.66936 23.0283 12.0391
Pt 6.12298 18.1174 12.9213
Pt 8.6247 20.8833 10.5168
Pt 9.9383 8.33361 14.806
Pt 13.5767 7.38932 16.9076
Au 10.7786 7.39453 12.2633
Pt 10.9856 7.31788 16.9728
Pt 12.5148 8.54664 18.9928
Au 13.8357 8.49583 21.4689
Pt 9.05144 9.5388 12.6038
Pt 11.8073 9.73901 13.2414
Au 7.91751 9.503 10.2307
Pt 9.95248 11.0125 14.7285
Pt 9.04924 13.0414 18.4476
Pt 11.5779 9.75461 16.4721
Au 10.7844 12.9654 16.4713
Pt 11.3657 11.2138 18.7242
Pt 11.0549 12.2882 21.3691
Pt 13.5931 10.8963 20.2641
Au 13.035 11.1433 22.8884
Pt 11.3778 9.71092 21.0285
Au 12.5565 13.8775 23.558
Pt 7.16187 11.9893 10.6346
Pt 9.26177 11.5818 9.10115
Au 7.32517 13.3039 8.04656
Pt 7.76609 11.8039 13.3544
Pt 9.82666 16.3101 15.351
Pt 11.663 12.5205 13.4607
Au 13.4837 13.8183 11.8069
Pt 7.84452 14.7712 16.5836
Pt 9.58065 15.8284 18.0506
Pt 11.1617 14.0756 19.3832
Au 12.0257 15.3367 16.879
Pt 8.7132 15.8939 20.4304
Pt 10.8027 14.9543 21.8047
Au 9.94805 17.7883 21.9265
Pt 9.78739 16.7522 10.4772
Pt 8.45493 16.023 8.25261
Au 12.7491 16.9843 6.70929
Pt 7.62945 14.0306 12.1485
Pt 10.3253 14.6233 12.1475
Pt 8.89523 14.1907 9.95249
Au 14.8671 18.1226 8.94126
Pt 12.0812 15.0332 14.1441
Pt 8.41697 18.5703 14.25
Pt 8.62518 18.1839 16.7116
Au 13.2933 18.3792 12.378
Pt 7.02332 16.9323 18.2215
Pt 9.05037 18.3089 19.3569
Au 7.08527 19.7955 18.0517
Pt 10.37 17.9623 7.60402
Pt 10.7082 20.2839 8.76986
Pt 12.9336 19.5863 7.58941
Pt 10.8528 19.2908 11.1309
Pt 9.6641 20.8095 13.1566
Pt 13.3393 20.2404 10.3581
Au 12.7908 22.2572 8.7546
Pt 10.6979 17.5074 13.0642
Pt 8.27134 20.7828 15.6009
Au 9.04451 23.0807 14.7052
Pt 11.0066 21.9798 10.8003
Pt 12.1621 20.7557 12.9882
Pt 12.3728 7.36999 14.499
Pt 12.829 8.66145 11.0152
Au 13.6453 6.40712 12.3334
Pt 13.8002 9.43238 15.1463
Pt 15.0337 7.7502 19.08
Au 16.1437 6.11663 17.1505
Pt 12.4612 11.3151 10.9813
Pt 11.6758 11.3348 8.21884
Au 13.9393 11.5178 6.60661
Pt 10.5805 9.67811 10.3907
Pt 9.80285 11.9691 11.6622
Pt 15.7943 11.1086 15.095
Au 15.8248 13.6329 10.4444
Pt 15.9214 8.75569 16.8201
Pt 13.976 10.2806 17.6747
Pt 18.2273 8.71627 18.9967
Au 13.2141 12.1069 15.7471
Pt 16.04 10.082 19.3889
Pt 15.6028 10.5118 21.9745
Au 16.5841 8.00081 21.1842
Pt 11.069 15.6529 8.44089
Pt 12.5302 13.832 7.13984
Au 15.5136 19.1255 6.45305
Pt 9.95903 13.5073 7.55966
Pt 11.449 13.4891 9.88238
Pt 13.8352 12.5833 9.09917
Au 13.7123 15.3949 8.91924
Pt 14.0375 11.3702 13.1342
Pt 14.5211 14.3877 16.6417
Pt 15.96 12.1993 17.6315
Au 14.8852 16.4327 11.2236
Pt 13.4119 12.8711 18.4558
Pt 11.3591 16.7964 19.9281
Pt 15.7677 12.6158 20.2196
Au 16.358 14.9114 18.5101
Pt 13.3149 13.4958 21.0553
Pt 13.2373 16.0977 21.9019
Pt 17.5263 12.3066 22.2617
Au 13.585 15.515 19.1757
Pt 15.109 12.9962 22.9208
Au 14.8541 15.4364 23.9575
Pt 15.3251 16.5005 6.77547
Pt 15.0533 20.8296 8.40921
Pt 17.5064 17.8172 7.9063
Pt 12.2415 17.8908 9.43352
Pt 16.5802 19.6382 10.2898
Pt 16.4153 15.7487 9.00159
Au 17.6384 20.4397 7.92845
Pt 12.2187 16.0458 11.271
Pt 12.3724 17.5593 15.1534
Pt 14.7227 13.7962 14.1893
Au 14.4454 16.498 14.009
Pt 11.1736 17.9115 17.5502
Pt 9.7837 20.464 17.6649
Pt 13.3561 18.6043 19.1587
Au 14.3252 17.167 16.994
Pt 11.1494 19.7869 19.7999
Pt 12.5061 18.4957 21.6984
Au 12.6555 21.155 21.4629
Pt 15.6639 22.1637 10.4539
Pt 13.3829 22.7961 11.5186
Pt 17.3358 21.3817 12.3479
Pt 14.8051 20.7705 12.5435
Pt 11.3581 21.9501 15.5584
Pt 13.6505 19.9124 14.8978
Au 15.8169 23.5277 12.9333
Pt 10.6959 19.4652 15.2178
Pt 12.3868 20.1427 17.2522
Au 11.5808 22.3271 18.5565
Pt 11.1978 23.1682 13.1483
Pt 13.6689 22.6799 14.2312
Pt 15.1768 7.8164 10.4618
Pt 19.5526 9.07676 14.889
Au 17.8603 6.96204 10.3124
Pt 15.0414 6.95963 14.7742
Pt 18.3741 7.65749 16.7065
Au 17.7554 6.0063 14.757
Pt 16.1635 11.5585 8.18831
Pt 16.6328 9.26396 9.02628
Au 17.5684 12.7697 6.0485
Pt 13.8324 9.85617 8.85967
Pt 15.2385 10.8033 10.8162
Pt 17.219 9.27738 11.7771
Au 18.0318 11.5429 10.5084
Pt 14.7277 8.8832 12.8278
Pt 17.7949 10.4976 16.7216
Pt 20.5081 9.91021 19.943
Au 16.5592 12.5112 12.7362
Pt 17.0087 8.75395 14.4067
Pt 18.234 11.5152 19.2381
Au 22.7805 10.0182 18.4662
Pt 15.342 13.8915 7.20438
Pt 17.8034 15.4817 6.69834
Pt 19.8874 14.0327 7.06795
Pt 17.7578 13.5825 8.59034
Pt 19.2616 15.8211 9.19489
Pt 19.9297 16.8487 11.7409
Au 20.232 16.9227 7.11892
Pt 18.4403 14.4038 11.2144
Pt 16.6453 15.3005 12.8939
Pt 17.223 13.2545 15.5879
Au 18.9969 14.1556 13.7966
Pt 18.6708 13.712 17.9077
Pt 18.2099 14.0482 20.463
Pt 20.7663 12.1116 18.4654
Au 19.0049 15.7469 16.1698
Pt 18.2424 10.0225 21.3387
Pt 17.3677 14.9639 22.9466
Au 19.516 13.457 23.5987
Pt 19.4081 18.6129 9.41597
Pt 16.1662 18.5326 12.7247
Pt 18.753 19.1667 11.8948
Pt 17.502 17.1175 10.8566
Pt 16.1556 18.4357 15.2989
Pt 18.3281 17.1805 13.8904
Au 18.9553 21.2835 10.1736
Pt 16.4734 15.7782 15.5594
Pt 15.3791 17.3353 19.8542
Pt 21.0348 14.2483 19.806
Au 17.1621 17.4107 17.6811
Pt 15.5361 15.028 21.1687
Pt 14.8364 19.5461 21.3909
Pt 19.8569 15.4852 21.92
Au 17.8097 16.7479 20.6169
Pt 15.8509 17.3974 22.4572
Au 18.4246 17.4726 23.2635
Pt 16.0204 21.2015 14.8967
Pt 16.0693 23.4727 15.7631
Pt 18.2031 19.8974 14.372
Pt 14.9812 19.8779 17.1304
Pt 16.1369 22.1992 18.0631
Pt 16.3418 19.6799 19.2663
Au 18.3416 22.9656 14.2457
Pt 13.9755 21.2298 19.2648
Pt 17.726 19.4228 21.4165
Au 16.0993 21.8463 20.9147
Pt 13.8218 22.3316 16.7649
Pt 17.6535 20.2017 16.9588
Pt 19.0628 9.13916 9.56562
Pt 19.0805 7.43781 12.7718
Au 21.1126 7.93405 10.7706
Pt 16.4489 6.79813 12.5641
Pt 22.0926 8.95231 15.901
Au 20.5195 6.66178 15.3047
Pt 19.018 11.3428 7.95233
Pt 20.1315 13.2023 9.59942
Pt 21.009 10.7228 9.7716
Pt 19.7897 9.85282 12.0288
Pt 20.4143 12.4092 12.076
Pt 22.3247 11.5782 16.3309
Au 21.7482 12.2121 7.64371
Pt 18.37 11.1461 13.8503
Pt 20.1652 9.94498 17.3181
Au 20.8148 7.59444 18.0846
Pt 21.854 14.8526 8.66122
Pt 21.381 14.7722 11.59
Pt 22.6599 12.7882 10.2013
Pt 21.5869 13.5623 14.4496
Pt 20.9695 16.0523 14.1589
Pt 23.2893 13.2054 18.057
Au 23.7435 15.3748 10.6016
Pt 19.7097 12.2402 15.9051
Pt 22.4543 12.0081 20.3852
Au 23.8158 14.3546 20.4268
Pt 21.601 17.1253 9.72913
Pt 20.6302 18.6693 13.8591
Pt 23.4896 15.1569 13.3351
Pt 21.4503 16.9938 16.6219
Pt 19.8367 16.3146 18.8227
Pt 21.1582 14.326 16.9979
Au 21.3927 19.58 11.1169
Pt 19.9982 12.2047 21.2612
Pt 22.0615 16.3931 20.8392
Au 21.9704 13.8798 22.3739
Pt 19.4477 18.5014 16.3292
Pt 20.0562 21.2246 12.8155
Pt 22.514 17.3641 12.1953
Pt 18.9195 18.8692 19.0437
Pt 18.3031 21.5043 19.4017
Pt 21.5598 18.4279 18.8667
Au 22.5899 20.3005 13.6914
Pt 20.124 18.0249 21.2085
Au 20.4917 20.5286 20.5751
Pt 18.4526 22.5659 16.8378
Pt 20.3443 20.744 17.8968
Pt 21.6292 8.34993 13.3865
Pt 22.4995 10.2969 11.81
Pt 21.1613 10.9477 14.0703
Pt 23.6201 10.4835 14.24
Pt 23.233 12.6431 12.6516
Pt 24.0662 13.0101 15.1296
Pt 23.3703 15.3081 15.9586
Pt 23.1016 17.6493 14.6783
Pt 22.828 15.9013 18.4677
Pt 22.0019 19.4802 16.258
Pt 20.2129 21.1628 15.3793
