286
Atoms. Timestep: 20496
Pt 12.9131 16.0709 13.8344
Pt 9.23708 17.5763 13.8357
Au 12.3006 10.6337 6.88625
Pt 18.2359 20.2544 15.3945
Au 20.766 21.6471 9.05756
Pt 14.4749 17.7481 15.1629
Pt 19.1711 13.4853 7.61765
Au 22.1311 15.5578 8.4703
Pt 11.9626 17.9058 20.6015
Pt 11.4395 20.8857 17.091
Au 24.2671 15.3321 15.3277
Pt 18.4491 21.5295 13.0289
Pt 9.88206 18.1935 9.66969
Au 8.91131 7.91573 18.122
Pt 7.14722 18.4532 15.5383
Pt 20.0225 20.1917 17.2515
Au 11.1743 7.35274 10.4916
Pt 11.3694 8.70102 19.5741
Pt 13.2342 18.6374 17.7081
Au 15.7147 19.8092 22.5329
Pt 12.4243 8.95052 14.9693
Pt 13.1262 16.0171 10.7346
Au 12.6309 8.35701 8.31655
Pt 13.881 21.5506 13.4803
Pt 13.0001 17.0707 8.17872
Au 6.29266 15.2046 12.1724
Pt 21.2532 18.5016 12.224
Pt 17.4802 21.6927 17.5446
Au 19.5171 10.7142 8.75768
Pt 15.4984 6.67033 18.9916
Pt 19.3546 9.76224 20.6215
Pt 21.0401 13.3824 18.4988
Pt 17.3588 15.752 16.0893
Au 9.88304 9.35975 21.6467
Pt 10.8508 9.53011 17.0807
Pt 21.1474 10.5611 18.875
Au 8.63794 21.4103 17.6743
Pt 13.1819 19.8526 21.9474
Pt 20.5567 17.3306 9.81614
Au 16.8034 17.1029 23.0727
Pt 12.763 13.5308 10.0907
Pt 10.9607 14.6063 17.2314
Pt 14.4731 9.52531 13.2759
Au 8.66887 8.29509 13.0959
Pt 9.15788 16.8232 16.2747
Pt 17.312 8.29961 15.5097
Pt 18.1395 13.7047 17.4932
Au 13.8981 15.4171 6.05446
Pt 9.59422 13.1763 18.9393
Au 5.92541 11.3062 15.6415
Pt 16.663 15.2714 10.7882
Pt 7.99191 14.5217 10.1335
Au 10.584 23.5246 17.3824
Pt 17.9248 22.8251 15.2328
Pt 18.4796 10.6629 11.3545
Pt 13.218 12.8869 22.8896
Au 24.0238 12.7391 14.3988
Pt 18.0554 12.8971 9.8894
Pt 7.63106 12.5902 11.8372
Pt 16.2248 16.6256 20.3823
Au 20.7556 12.2295 20.9804
Pt 21.4615 9.43307 16.6137
Pt 10.4975 16.7746 7.59101
Au 12.1739 17.8698 23.5057
Pt 15.7069 7.77803 11.544
Pt 12.1682 11.4227 13.6301
Au 20.3699 7.41861 13.4724
Pt 10.6189 13.9352 22.6787
Pt 15.2034 8.64301 8.90872
Pt 11.6171 17.9631 15.3734
Au 15.0496 10.5868 6.70238
Pt 20.4175 12.319 11.0844
Pt 20.7929 16.0024 19.4841
Pt 20.0084 11.8154 16.5624
Au 15.4486 7.50521 21.5801
Pt 21.3628 17.8367 17.5061
Pt 13.3769 9.04097 10.9246
Au 13.9825 24.3565 13.8168
Pt 14.5643 14.4213 12.3438
Pt 19.2373 22.6407 10.9246
Pt 17.6447 8.52986 9.88019
Pt 13.2136 15.9619 16.7278
Pt 21.5855 13.6369 13.403
Pt 8.42518 14.1716 16.3247
Au 8.02958 16.6353 8.54279
Pt 12.9787 22.7635 18.2619
Pt 16.3004 6.58708 13.6959
Au 16.7032 15.2286 5.80411
Pt 21.1 21.0594 12.0048
Pt 22.9854 16.9738 10.7172
Pt 12.1456 20.9543 11.6736
Pt 17.3065 11.1277 16.7457
Au 22.861 20.1461 14.0749
Pt 11.0441 16.7555 12.1209
Pt 17.9343 17.4084 9.33304
Au 10.9924 11.4221 23.5489
Pt 8.58669 14.6608 20.9718
Pt 19.831 14.8331 9.89483
Au 7.8658 19.7736 11.0519
Pt 14.6829 12.3339 14.2152
Pt 10.2841 19.4331 18.8366
Pt 14.7263 10.0312 22.2937
Au 19.0324 16.5679 21.4707
Pt 16.9332 10.6144 13.8731
Pt 19.3539 11.9561 13.6099
Pt 15.6794 17.4196 17.5722
Au 23.5095 17.9921 16.0043
Pt 16.172 8.75644 17.8187
Pt 8.36026 20.1408 13.8004
Au 14.1032 22.1447 20.7212
Pt 15.0347 17.1475 12.5344
Pt 12.1791 6.31876 15.1965
Au 15.6255 23.4518 18.4331
Pt 12.7513 11.3227 16.3339
Pt 10.0941 13.0928 10.9576
Pt 16.5988 10.3116 20.0579
Au 13.9695 24.6346 16.5629
Pt 16.9057 18.6836 11.555
Pt 14.6981 14.3901 20.7121
Pt 14.9047 18.9815 19.9297
Au 17.9436 17.8847 6.5545
Pt 9.79683 11.959 21.2022
Pt 11.0584 12.2647 8.53932
Pt 7.54061 12.0247 17.5364
Au 15.1944 5.07694 11.8136
Pt 16.5001 12.9527 7.38908
Pt 12.8034 21.3482 9.21043
Pt 20.4672 21.2776 14.6561
Au 7.34094 12.0754 20.2951
Pt 9.72959 12.7174 13.8918
Au 12.3482 15.145 24.3922
Pt 11.9531 14.6838 7.8388
Pt 11.8512 13.9742 12.6053
Pt 22.7754 11.7896 12.1331
Pt 16.2356 5.87538 16.3647
Pt 13.3737 8.59242 17.5126
Pt 12.6785 15.5106 21.8649
Au 5.64396 13.9229 16.3892
Pt 20.9362 18.6553 15.0582
Pt 12.0124 13.2137 20.5588
Pt 11.695 11.0538 10.896
Au 10.3442 9.66674 9.11716
Pt 9.51141 19.4629 16.0889
Pt 13.7717 10.8952 9.15269
Pt 9.21531 10.4588 19.0054
Au 15.3919 21.9937 8.78737
Pt 14.5477 19.9591 11.0212
Pt 12.539 13.6581 15.2875
Au 9.26044 14.1884 7.8008
Pt 13.748 12.8789 7.50178
Pt 19.9292 7.47542 16.1665
Pt 11.3207 6.90862 17.598
Pt 7.20091 15.9102 14.6017
Pt 20.0776 15.5991 17.0709
Pt 14.2135 22.7281 11.1914
Au 18.5301 5.78661 14.7668
Pt 14.7344 15.0548 8.6485
Pt 12.2207 10.6069 21.4302
Au 20.5003 7.78982 18.9602
Pt 15.1455 17.5026 9.91527
Pt 11.1982 20.5257 14.2459
Pt 17.2098 13.1075 14.8969
Pt 9.92679 7.70304 15.4004
Au 8.17222 20.2029 20.1803
Pt 15.0139 14.9885 15.0803
Pt 18.7746 16.852 11.7368
Au 23.971 14.9315 12.6375
Pt 14.0909 9.0604 19.9217
Pt 10.2491 19.1989 12.1184
Au 11.4723 24.8767 15.1612
Pt 10.0993 10.206 14.5449
Pt 13.4068 7.01647 12.8823
Pt 10.2811 16.454 22.3796
Au 21.4967 12.7674 8.62658
Pt 18.7106 17.9709 16.6775
Pt 12.9891 18.808 13.0868
Pt 6.85081 14.1947 18.8034
Au 9.58704 22.4697 15.0561
Pt 19.3441 16.6245 14.3147
Pt 17.3646 15.2039 8.3137
Au 10.6918 6.36371 13.0239
Pt 11.6811 23.1285 13.126
Pt 13.7442 6.60828 10.1678
Pt 15.8034 12.435 22.5092
Pt 13.7553 5.91059 17.2285
Pt 19.4129 9.74893 14.9392
Pt 22.04 13.6525 16.0515
Au 21.8302 10.2564 10.1162
Pt 11.5501 19.2688 7.95595
Pt 14.1882 19.441 8.23281
Pt 10.1164 12.0727 16.5356
Au 18.4709 24.192 12.9259
Pt 15.9785 19.6732 16.2608
Pt 16.1584 22.9133 13.1931
Pt 9.34786 10.5745 11.7802
Au 17.3428 9.45228 22.4581
Pt 16.8263 10.7674 8.70184
Pt 15.2692 12.9281 16.7002
Au 16.7874 23.8351 10.6166
Pt 14.8047 20.9373 18.1479
Pt 18.8051 11.7108 19.0092
Pt 15.4386 12.884 9.85135
Pt 10.2787 20.7404 9.81952
Pt 7.11359 13.3456 14.2278
Pt 9.20703 17.6291 20.422
Au 18.1404 6.20611 11.5903
Pt 19.1739 19.8009 10.6693
Pt 18.0987 6.78073 17.7883
Pt 16.9844 17.8725 14.4186
Au 12.6375 8.09018 22.0498
Pt 19.6444 18.3902 19.3741
Pt 17.2845 19.2619 18.506
Pt 21.7646 16.0354 15.0252
Au 11.3642 23.2321 10.4697
Pt 13.9597 11.8652 11.8079
Au 8.44545 11.8104 9.30697
Pt 19.5729 14.1063 15.0929
Pt 16.026 20.1932 13.6075
Pt 11.3561 8.93494 12.6012
Pt 14.3801 17.4444 22.0477
Pt 10.9937 15.4224 19.9198
Pt 19.0534 14.2527 12.3476
Au 16.3213 6.1697 9.47646
Pt 8.26184 9.85571 16.3126
Pt 12.5708 22.6037 15.5737
Au 23.7129 19.4907 11.629
Pt 17.9984 8.51583 12.8387
Pt 16.7488 21.2717 11.0791
Pt 7.6997 10.7923 13.8321
Pt 18.1028 16.3198 18.7263
Au 10.4673 19.8218 21.698
Pt 18.8551 9.37949 17.7777
Pt 12.5642 20.3914 19.5347
Au 19.1585 20.9845 19.637
Pt 21.8325 11.233 14.6874
Pt 14.6011 7.5884 15.3464
Pt 18.1306 21.6261 8.86367
Pt 8.30454 16.9743 11.2424
Pt 9.62664 21.7886 12.2051
Pt 15.3119 22.3416 15.7676
Au 6.70933 16.6908 19.9631
Pt 16.7475 12.7535 12.2516
Pt 21.8558 19.4613 9.79894
Au 22.8707 15.6008 17.7377
Pt 13.5275 20.1584 15.623
Pt 15.5811 17.2305 7.34574
Pt 17.6574 7.93975 20.0227
Pt 19.9048 8.43224 10.9148
Pt 20.862 9.98037 12.6545
Pt 21.2099 15.9214 12.3028
Au 23.0052 11.5533 17.2144
Pt 19.5633 19.2435 8.20203
Pt 14.2604 11.8643 20.4909
Au 12.9742 6.4964 19.8051
Pt 10.5182 15.4909 9.93548
Pt 18.147 11.9845 21.609
Pt 17.5881 18.8094 21.0008
Pt 22.3413 14.1249 10.7506
Pt 7.94136 18.4311 18.1241
Pt 8.9761 14.9096 12.645
Au 15.0539 13.0725 5.24771
Pt 14.8952 15.039 23.2427
Pt 14.7096 10.9774 18.2018
Au 10.4636 22.0217 19.7334
Pt 16.5379 12.9087 19.5513
Pt 16.9787 15.3935 13.4075
Pt 15.92 10.3349 11.1198
Pt 15.6591 14.964 18.1844
Pt 11.0897 17.2045 17.9825
Pt 19.0389 19.0923 13.2315
Au 14.3548 4.88917 14.5641
Pt 16.703 19.5354 8.81204
Au 16.5879 21.3461 20.3028
Pt 13.6498 16.4243 19.3383
Pt 10.5011 15.2906 14.6827
Pt 6.62069 16.3099 17.1657
Pt 12.4113 18.5836 10.3524
Pt 11.8488 11.245 18.853
Pt 6.8172 18.0129 12.9796
Pt 18.9987 14.171 20.0758
Pt 19.6911 16.2108 7.5845
Pt 15.0573 10.1052 15.7343
Pt 8.82841 15.7913 18.5802
Pt 13.2263 13.6026 18.2691
Pt 17.1483 14.5911 21.8501
Pt 23.2854 17.4295 13.4199
