286
Atoms. Timestep: 20283
Pt 16.5948 15.8249 13.3897
Pt 13.9148 19.1371 8.17627
Au 14.7953 4.68645 12.5494
Pt 21.0375 16.6258 17.0925
Au 5.72683 10.818 14.662
Pt 18.5357 12.1608 9.20639
Pt 7.99651 16.6956 14.4424
Au 5.12263 12.9531 16.1854
Pt 13.5273 20.6767 21.8622
Pt 11.4907 13.9822 22.4799
Au 12.2633 19.2016 23.8687
Pt 11.5079 22.4538 15.0753
Pt 9.70427 15.7602 21.4728
Au 17.4798 6.76932 8.20135
Pt 9.08098 18.7227 18.0493
Pt 12.5241 8.6848 9.28338
Au 11.5063 6.64969 15.2513
Pt 16.5797 21.9999 9.28768
Pt 12.1302 15.8378 20.2704
Au 21.9502 13.6783 20.4509
Pt 18.8535 16.9845 13.0602
Pt 9.80302 18.5919 13.3953
Au 21.1545 9.08466 9.2885
Pt 15.5638 7.23926 12.6095
Pt 7.92412 14.291 10.1996
Au 6.57116 19.1355 17.8227
Pt 16.4042 12.7907 17.6237
Pt 18.3866 9.23569 15.7502
Au 22.7835 16.0561 19.1177
Pt 10.392 13.5868 20.0574
Pt 14.6441 14.8583 19.1863
Pt 18.6931 20.538 9.07568
Pt 19.8307 12.4631 11.5541
Au 18.8927 20.9381 22.2755
Pt 8.30533 19.1328 15.6387
Pt 12.0501 15.45 9.24598
Au 7.58203 9.84322 12.5182
Pt 19.406 14.1575 21.5172
Pt 9.50785 20.9755 14.2723
Au 5.31958 16.7842 17.9325
Pt 14.1909 14.2788 16.5742
Pt 14.0556 17.0017 9.84382
Pt 17.4242 11.6045 15.2341
Au 9.67629 9.24504 20.1682
Pt 16.1555 10.5939 19.1848
Pt 12.4539 18.4683 21.0638
Pt 9.99634 13.616 13.8691
Au 18.021 13.5685 5.02146
Pt 13.9621 9.63812 7.27603
Au 18.8607 22.9379 10.4196
Pt 16.9054 16.8513 10.7202
Pt 16.2633 7.72353 15.2997
Au 13.5861 6.44158 10.7041
Pt 7.80662 14.6128 12.7472
Pt 17.5027 14.6854 19.123
Pt 9.41667 10.0865 17.6065
Au 12.289 8.42562 20.5274
Pt 18.0962 14.4565 11.5172
Pt 15.7417 18.6411 17.269
Pt 17.4167 21.0422 11.4719
Au 18.011 6.31256 16.9196
Pt 17.8561 19.1671 20.121
Pt 14.1264 6.1898 14.6701
Au 7.19983 19.0695 13.1195
Pt 15.6477 7.52034 17.9043
Pt 9.90769 13.7345 8.52673
Au 13.409 14.4054 24.5279
Pt 17.4592 11.2813 6.75798
Pt 22.04 13.9923 17.587
Pt 9.88872 16.0002 18.7208
Au 19.5085 7.10948 10.0076
Pt 19.7583 18.509 21.96
Pt 18.7896 16.3142 23.1315
Pt 12.2376 12.9261 15.1326
Au 8.9939 21.4546 17.0437
Pt 8.90904 13.5784 17.9023
Pt 17.8879 8.53692 18.5315
Au 10.4585 22.805 12.6218
Pt 13.9679 17.4477 18.769
Pt 14.6073 16.8919 21.3643
Pt 19.0717 7.05785 14.6017
Pt 15.0426 7.76384 8.86496
Pt 17.9837 9.88444 20.8502
Pt 14.5866 9.14819 11.1204
Au 12.3025 22.4699 20.3006
Pt 21.0808 14.3533 15.333
Pt 19.1892 22.3741 13.068
Au 12.8217 24.1697 13.0309
Pt 22.5239 18.4853 15.8136
Pt 19.2196 9.98579 10.8227
Pt 18.2613 12.3423 19.7604
Pt 10.3967 14.5578 11.1357
Au 11.1991 8.09595 17.9735
Pt 12.6644 21.8933 11.5359
Pt 13.7636 10.696 20.5142
Au 10.9856 7.32572 10.8973
Pt 12.6763 15.5597 12.0981
Pt 11.4931 10.6512 7.7668
Au 5.79704 18.1523 15.3864
Pt 15.8692 9.95662 16.7015
Pt 10.1262 10.8154 13.511
Pt 14.7362 11.9371 15.3054
Au 11.0164 11.1817 21.7972
Pt 11.6411 13.2968 17.7452
Pt 18.5036 9.28297 8.45645
Pt 14.7544 20.3838 12.1804
Au 16.237 5.64055 10.3763
Pt 14.074 14.5429 21.9575
Pt 20.3304 20.7561 11.3682
Au 15.5239 24.3968 13.8714
Pt 17.9304 22.6049 17.4088
Pt 16.3687 20.5286 22.1517
Au 23.4039 15.9331 15.9863
Pt 7.57312 16.9501 19.5119
Pt 13.6167 11.0807 9.56997
Pt 12.3429 15.5565 14.8779
Au 5.77354 16.4466 13.0004
Pt 12.3285 15.828 17.5348
Pt 14.1224 22.9412 18.2038
Pt 18.5715 17.3738 17.908
Au 10.9066 15.6269 6.78597
Pt 16.5462 12.8979 12.9902
Pt 21.4114 19.9988 13.9274
Pt 20.5522 14.2342 9.73194
Au 10.7441 12.8768 6.10349
Pt 15.6823 15.6291 5.9326
Pt 20.5849 14.9145 12.5015
Pt 14.7004 18.6734 23.1734
Au 15.6014 5.15538 16.5946
Pt 16.4243 17.0545 19.5329
Au 8.92233 13.0352 22.1683
Pt 9.79633 18.2147 20.5152
Pt 20.1519 8.20753 12.46
Pt 11.0478 11.8856 9.96659
Pt 17.0136 17.9429 22.2864
Pt 16.4398 8.86719 6.91221
Pt 10.5001 20.2874 11.6047
Au 22.2208 21.2324 16.0946
Pt 20.2119 11.738 15.8063
Pt 9.84947 12.0044 15.9723
Pt 15.8029 10.6233 22.1819
Au 22.592 13.3064 11.3656
Pt 16.039 17.1296 8.06563
Pt 12.0592 9.96965 11.5737
Pt 14.0147 22.1092 14.0509
Au 21.7363 10.3606 11.9218
Pt 12.3787 17.8655 13.7026
Pt 18.4381 17.9448 8.46154
Au 13.379 24.1363 15.874
Pt 21.1327 19.494 17.726
Pt 19.6079 21.4499 15.5928
Pt 14.7797 14.7422 8.4655
Pt 9.52278 16.2831 9.19171
Pt 7.8872 16.5044 16.9747
Pt 15.6705 15.9863 23.7226
Au 22.5096 16.1741 11.0135
Pt 17.7856 21.744 19.9241
Pt 20.8435 9.35648 14.7428
Au 8.27866 11.6506 9.24038
Pt 12.2356 10.7684 16.7207
Pt 20.7836 17.795 19.5698
Pt 10.4659 17.5053 15.9038
Pt 18.5239 10.8731 17.6852
Au 13.2844 6.39647 17.4003
Pt 19.7027 18.6871 15.7071
Pt 17.0812 8.25621 10.5413
Au 13.574 9.31027 22.7284
Pt 16.7142 18.7623 12.8149
Pt 15.2635 14.9719 11.286
Au 8.14724 17.0122 11.4405
Pt 14.5527 17.5034 12.3619
Pt 16.8166 5.50147 14.2248
Pt 17.661 8.79676 13.1767
Au 20.2698 7.94091 17.0803
Pt 6.46021 14.3972 17.9751
Pt 11.5248 18.191 18.5247
Pt 21.0556 16.8243 14.3829
Au 12.097 5.585 12.8281
Pt 16.4493 19.8571 7.68442
Pt 8.24359 9.81026 15.1794
Au 13.6779 17.1009 25.0661
Pt 15.9441 19.1936 10.0862
Pt 12.8549 13.1045 20.2174
Pt 13.091 18.2968 16.3536
Pt 18.8274 15.85 15.6365
Pt 15.6482 12.7871 20.5784
Pt 13.027 8.04109 13.0828
Au 20.1134 10.881 7.18518
Pt 22.9158 14.9914 13.5233
Pt 13.4216 16.6569 7.16448
Pt 18.8907 13.6427 17.0324
Au 9.27925 18.9679 9.68341
Pt 13.2277 20.2937 18.9005
Pt 14.3828 11.6855 12.1642
Pt 15.3064 22.8767 11.5862
Au 20.2828 9.52908 19.4029
Pt 20.1656 20.3623 20.0158
Pt 12.74 10.4953 14.0818
Au 21.3932 11.7216 9.39597
Pt 10.2727 8.28644 13.1608
Pt 16.6399 21.8493 13.7157
Pt 13.3017 14.3331 6.01041
Pt 14.2651 14.1024 13.6831
Pt 7.84708 14.4264 20.1446
Pt 17.1098 20.4223 15.7163
Au 19.7809 13.603 7.16998
Pt 15.9333 20.9874 18.1678
Pt 10.0937 14.9821 16.1014
Pt 10.7875 9.14026 15.4892
Au 5.41472 13.612 13.5715
Pt 8.67551 11.6825 19.6291
Pt 6.68386 12.2968 11.574
Pt 18.9235 13.5589 14.0253
Au 21.7968 10.2006 17.176
Pt 16.9308 13.6782 7.42107
Au 17.9554 14.1461 24.1503
Pt 13.6443 8.58024 15.7464
Pt 12.8939 19.1544 10.8785
Pt 15.4592 13.0708 5.2574
Pt 10.242 16.0801 13.3162
Pt 15.1312 22.0455 20.3875
Pt 15.3664 9.81259 13.8319
Au 15.4 10.4589 5.1024
Pt 11.5842 17.9813 8.58297
Pt 7.68275 14.0745 15.5566
Au 20.937 18.8136 9.3572
Pt 15.6659 13.1367 23.4291
Pt 19.7873 16.5426 10.509
Pt 13.4257 12.0641 22.7394
Pt 11.4204 10.9525 19.1767
Au 11.5627 20.6737 9.0911
Pt 11.0733 20.0099 16.3297
Pt 5.6322 15.5445 15.565
Au 18.0663 23.7834 15.0202
Pt 17.8255 12.2283 22.2819
Pt 18.0289 15.1615 9.05209
Pt 9.62473 9.79031 10.8218
Pt 18.729 16.5921 20.5698
Pt 10.9779 17.4354 11.1472
Pt 14.229 21.2434 9.60436
Au 10.7957 20.4639 21.8747
Pt 21.5626 12.3853 13.6805
Pt 7.78057 12.1264 13.9894
Au 17.5812 18.238 5.89352
Pt 14.8054 19.4009 14.6218
Pt 10.5856 20.5681 19.2148
Pt 16.9048 10.8049 11.5917
Pt 18.2339 15.8296 6.55991
Pt 18.8862 19.8204 13.5473
Pt 13.3177 13.5161 10.5068
Au 20.4696 22.1684 18.0946
Pt 16.6076 14.1465 15.3501
Pt 18.6437 18.8092 10.9857
Au 10.125 17.8805 23.0634
Pt 14.7268 16.6337 15.0846
Pt 16.7894 15.0049 21.6434
Pt 17.204 17.8246 15.2294
Pt 13.6591 20.981 16.3975
Pt 7.34466 11.6942 16.9629
Pt 15.7076 22.7763 16.0789
Au 20.5682 16.2939 7.91982
Pt 15.1907 19.2997 20.2679
Pt 20.6217 12.1531 18.6261
Au 14.9357 18.3678 5.78666
Pt 18.5626 20.0417 17.8138
Pt 15.3798 8.55427 20.4556
Pt 21.0562 18.2618 12.0628
Pt 16.1403 10.3287 9.07087
Pt 11.93 12.6285 12.4819
Pt 12.4944 13.1216 8.07088
Au 21.2732 16.1371 21.6453
Pt 12.1545 20.3316 13.6973
Au 20.311 11.5164 21.3263
Pt 9.16884 12.3224 11.6444
Pt 13.0914 11.6782 5.8168
Pt 14.0457 11.9725 18.1068
Pt 20.1257 15.0204 19.016
Pt 13.7062 9.18771 18.3375
Pt 14.9258 12.1113 7.57628
Pt 19.1853 10.8412 13.4226
Pt 23.1654 17.6643 13.3855
Pt 16.119 12.8795 10.022
Pt 12.3946 16.4891 22.8775
Pt 11.6586 22.3364 17.6387
Pt 16.3002 15.9718 17.1397
Pt 18.1253 6.40925 12.1719
