286
Atoms. Timestep: 20426
Pt 13.668 6.93866 17.3776
Pt 20.9756 10.667 11.6139
Au 6.75418 9.5931 15.8029
Pt 6.98508 12.544 15.0811
Au 13.9989 5.66488 12.6599
Pt 9.82826 19.6016 16.9347
Pt 16.6628 18.8538 12.5878
Au 14.5817 5.33969 15.3375
Pt 13.1994 17.7286 9.95946
Pt 19.004 20.6753 12.6703
Au 11.9456 22.3004 11.1539
Pt 21.142 14.6536 21.905
Pt 12.5368 7.02246 14.7266
Au 13.827 9.34292 6.43115
Pt 8.33284 17.3941 20.4073
Pt 20.8185 19.3139 13.9997
Au 16.208 19.9162 7.41578
Pt 12.5302 18.079 14.8071
Pt 9.29881 10.005 14.8173
Au 8.1431 20.1022 20.8615
Pt 19.8628 12.1931 13.645
Pt 14.0882 11.2755 12.5415
Au 7.02366 18.3095 11.2472
Pt 10.7816 15.3024 14.0098
Pt 8.05948 13.6782 10.706
Au 11.0689 6.18681 16.8199
Pt 16.3144 6.76805 13.5831
Pt 15.478 10.321 10.4813
Au 20.9448 7.84494 12.553
Pt 14.1314 17.9993 7.42439
Pt 15.1495 14.0955 12.7368
Pt 14.4771 15.6379 8.58271
Pt 8.00621 17.0819 13.5824
Au 10.5827 13.9884 6.72868
Pt 13.4001 9.51564 17.3725
Pt 8.01988 11.8438 19.4109
Au 6.97898 15.4822 21.4021
Pt 15.5376 7.51909 11.1176
Pt 13.683 15.868 13.9691
Au 22.37 17.8168 18.259
Pt 16.2628 9.45233 12.9454
Pt 18.9209 6.99207 14.3151
Pt 12.6571 15.1435 10.7188
Au 12.4718 13.8093 15.622
Pt 11.0499 16.6582 20.0965
Pt 11.3 11.5828 13.6513
Pt 19.1704 16.2219 7.97622
Au 21.6496 21.3683 12.3499
Pt 12.3581 10.8655 19.4044
Au 24.0685 17.0691 12.7782
Pt 9.80798 20.0303 14.4365
Pt 18.4865 18.1305 14.404
Au 15.7092 13.4951 4.90887
Pt 11.173 22.3922 13.8194
Pt 11.8224 17.1566 12.3189
Pt 17.3711 8.79256 15.2574
Au 7.64119 21.0788 16.2566
Pt 8.09665 13.6867 17.4438
Pt 13.4175 21.6169 20.1723
Pt 12.6785 13.6608 12.9541
Au 13.6926 12.2964 17.4385
Pt 21.0876 14.3462 12.529
Pt 21.4804 16.8765 13.4781
Au 11.898 9.1879 21.3768
Pt 15.8397 17.322 18.1573
Pt 16.2215 21.5048 12.427
Au 23.398 19.6622 13.8525
Pt 15.5406 22.3484 15.2543
Pt 17.3572 19.4081 19.3916
Pt 10.1371 11.2526 20.9583
Au 23.3599 13.2263 20.8242
Pt 13.3521 15.2668 20.9332
Pt 9.77985 15.5791 22.1331
Pt 12.3613 19.1777 20.8717
Au 11.3129 6.35246 12.4702
Pt 15.853 17.8334 15.4363
Pt 19.3224 12.6869 11.0729
Au 10.1817 12.8593 23.2804
Pt 15.2537 16.1451 10.9741
Pt 17.7598 19.8566 10.5256
Pt 22.1193 18.7665 11.6371
Pt 14.2351 18.0464 12.5544
Pt 16.4109 20.3383 17.108
Pt 13.6365 16.2928 16.577
Au 16.69 12.0012 23.2958
Pt 22.0893 15.1739 19.45
Pt 15.9248 21.3805 9.64624
Au 8.55182 22.4332 14.1007
Pt 18.0317 17.0683 19.9525
Pt 19.1372 16.2516 22.4365
Pt 13.7758 11.9856 6.22593
Pt 8.08982 16.3738 9.63998
Au 5.49658 17.6977 13.601
Pt 12.4297 11.8031 22.1764
Pt 10.0571 12.2302 9.16221
Au 5.36615 16.9484 16.2675
Pt 13.2818 14.5198 6.15431
Pt 20.3977 11.1672 18.081
Au 9.4891 16.5974 7.40261
Pt 14.717 19.501 19.4494
Pt 16.3033 23.0912 17.6522
Pt 14.6598 15.8677 23.1497
Au 7.20522 9.47253 18.5867
Pt 21.7717 10.09 14.0415
Pt 18.5029 10.3327 8.23347
Pt 20.7214 17.7265 9.52429
Au 11.3369 11.2785 7.0177
Pt 9.67418 12.9887 15.2547
Pt 13.6817 22.2182 13.349
Au 6.17164 13.769 19.4982
Pt 14.8462 12.5177 14.7862
Pt 22.2225 16.1807 10.9525
Au 25.1099 13.2176 13.7629
Pt 16.2697 19.8428 21.6879
Pt 12.7922 9.54915 10.8449
Pt 11.2869 8.99205 13.1685
Au 5.92624 11.7328 17.5249
Pt 19.9999 19.1702 18.8143
Pt 6.65485 15.6842 11.7857
Pt 20.7621 17.1272 20.6137
Au 6.44175 10.3974 13.2603
Pt 7.52921 18.42 15.8127
Pt 14.5596 8.48702 8.8323
Pt 12.9169 23.0806 15.8034
Au 24.0898 11.0351 15.053
Pt 16.6935 17.2569 7.76215
Pt 15.6173 10.7425 19.0241
Pt 14.7186 10.7402 21.477
Au 12.2141 14.715 18.4423
Pt 13.4757 17.2404 19.2461
Au 11.7673 8.9181 8.42902
Pt 16.6913 12.0394 12.163
Pt 11.2203 8.73737 16.139
Pt 20.6442 17.4186 15.9556
Pt 22.3456 10.0948 16.8191
Pt 5.85784 15.0722 14.2572
Pt 16.4339 16.3548 13.3752
Au 16.2834 8.3796 20.7855
Pt 12.0802 16.1895 7.82853
Pt 13.9609 8.66234 19.7423
Pt 22.3626 15.3782 16.8409
Au 16.6201 8.54813 6.80895
Pt 17.7636 17.1061 10.3794
Pt 20.3172 13.9648 17.7767
Pt 17.2354 12.3344 9.45174
Au 12.9428 6.90348 10.3452
Pt 7.86169 15.7174 15.8488
Pt 13.8102 12.835 20.0689
Au 11.7932 22.9646 18.4183
Pt 9.09124 14.9254 19.4848
Pt 11.4886 19.7734 10.3816
Pt 18.1833 10.3044 11.0012
Pt 9.94982 9.90406 18.7044
Pt 14.8402 8.06631 15.342
Pt 14.4816 17.986 21.6597
Au 7.30939 19.9541 13.4685
Pt 10.3586 13.4306 11.8306
Pt 18.6735 18.8215 8.35069
Au 23.4365 17.4807 15.5069
Pt 16.8522 6.45167 16.191
Pt 20.8586 12.8392 20.0671
Pt 17.0884 14.648 22.5878
Pt 13.2223 10.1575 14.7711
Au 9.57814 7.25299 14.4464
Pt 16.0459 21.7274 19.7846
Pt 17.6408 12.2592 6.70478
Au 8.1683 14.107 8.06042
Pt 18.0572 22.9256 13.6641
Pt 19.5673 18.1751 11.86
Au 10.7708 21.3504 20.7937
Pt 10.3054 22.1099 16.3147
Pt 18.9504 12.8075 21.9883
Pt 17.0421 14.93 8.96094
Au 18.2136 22.6235 10.8888
Pt 22.7261 12.7121 18.1575
Pt 12.0353 19.9273 12.9563
Pt 22.6463 12.3915 13.1153
Au 18.4001 21.4383 8.43992
Pt 18.9178 18.8431 21.5349
Pt 12.0206 20.3022 18.3258
Au 10.0093 18.5174 22.2137
Pt 20.2548 20.285 10.2865
Pt 15.8588 15.9131 20.5937
Pt 12.2898 20.5857 15.6067
Pt 19.0485 14.7571 20.2804
Pt 23.1094 14.9481 14.212
Pt 8.66987 9.13587 12.496
Au 15.9726 10.7397 5.22142
Pt 18.3608 22.4912 16.197
Pt 16.3859 13.2371 20.4696
Pt 15.4705 10.4334 16.2156
Au 15.722 14.9065 15.7354
Pt 9.6347 21.0879 11.9794
Pt 20.3755 21.77 14.7091
Pt 19.3342 19.9811 16.3384
Au 6.05862 12.9934 12.417
Pt 19.773 10.2813 15.7512
Pt 16.0705 8.27427 17.9277
Au 22.5742 10.6359 19.8466
Pt 11.3531 11.2624 16.4953
Pt 14.0677 20.3712 11.3626
Pt 13.4556 11.0327 8.71627
Pt 11.6303 17.7127 17.4363
Pt 19.1142 9.55734 13.3359
Pt 5.72185 14.3389 16.7694
Au 21.5318 11.9456 22.4323
Pt 9.63107 18.5647 12.1799
Pt 8.45391 13.3203 21.4003
Pt 17.6552 13.8294 13.9922
Au 8.92564 19.2895 9.54644
Pt 18.1474 7.64415 11.8344
Pt 8.61732 11.8295 12.9753
Pt 19.4332 13.4737 8.40777
Au 10.3333 8.06381 10.622
Pt 10.3692 14.7459 9.42926
Au 7.74007 10.9939 10.594
Pt 17.3745 11.301 14.6051
Pt 18.2497 15.7904 15.7568
Pt 9.49664 15.9153 11.7468
Pt 7.56114 19.1172 18.3868
Pt 13.9971 19.0449 16.9399
Pt 19.0329 15.9123 12.9946
Au 20.8707 21.8619 17.4444
Pt 13.8606 8.36075 12.8563
Pt 10.0194 17.4967 15.1837
Au 18.4055 21.3812 21.1591
Pt 18.0623 17.9821 17.1704
Pt 14.6117 13.3563 22.5414
Pt 10.6255 17.3112 9.84209
Pt 12.6359 13.5084 8.4439
Au 20.8409 11.1487 8.99259
Pt 18.7394 12.8481 16.2322
Pt 10.1172 19.0496 19.4857
Au 15.6644 24.1325 13.1632
Pt 14.1431 21.666 17.5889
Pt 12.2564 14.4441 23.1392
Pt 20.0077 10.4788 20.7051
Pt 21.6008 12.4244 15.703
Pt 8.58188 11.1643 16.914
Pt 19.9762 16.4536 18.2234
Au 23.9245 14.3227 11.6311
Pt 11.6267 8.05686 18.7213
Pt 6.82451 16.1867 18.4737
Au 11.4507 18.8657 7.77117
Pt 14.8905 14.7301 18.4591
Pt 14.8393 13.2684 10.2212
Pt 21.7638 13.2463 10.3226
Pt 15.3991 13.4185 7.56896
Pt 19.7617 15.3234 10.4122
Pt 10.4102 12.6691 18.4755
Au 16.8994 24.6217 15.5208
Pt 16.3416 12.7434 17.334
Pt 11.1656 13.7152 20.799
Au 21.0207 8.58125 18.5886
Pt 8.26353 14.3746 13.5122
Pt 9.12747 17.0933 17.844
Pt 18.4011 9.02806 19.3484
Pt 10.3675 10.6692 11.1955
Pt 13.6511 20.2156 8.80768
Pt 17.5921 14.7913 6.45543
Au 9.07692 21.5911 18.684
Pt 17.3965 10.7667 21.1056
Pt 15.6022 18.6181 9.82335
Au 21.6506 15.2263 8.44174
Pt 21.9504 19.7254 16.2918
Pt 10.3428 15.1401 16.7014
Pt 18.3496 12.3302 19.1541
Pt 17.4056 14.5218 11.4276
Pt 12.3975 12.2545 10.7275
Pt 20.4937 14.7211 15.0448
Au 8.83003 8.01001 17.0181
Pt 17.3379 20.4683 14.7082
Au 14.5152 23.1633 10.8949
Pt 19.8917 8.77262 10.1307
Pt 20.9881 8.07604 15.466
Pt 14.6666 19.9812 14.383
Pt 15.8314 10.7573 7.884
Pt 17.8061 10.4276 17.3804
Pt 12.1677 16.9957 22.5417
Pt 18.4809 21.5587 18.5532
Pt 17.5553 14.9864 18.1733
Pt 23.9621 13.4461 16.0895
Pt 15.3216 15.9576 6.08167
Pt 17.2169 8.44225 9.39901
Pt 18.9459 7.86917 17.0641
Pt 16.8557 17.3995 22.5254
