286
Atoms. Timestep: 20497
Pt 15.968 6.44172 12.8641
Pt 18.7466 19.5335 9.62325
Au 18.0209 11.7917 6.00679
Pt 20.5537 16.8529 16.4203
Au 19.1651 23.643 15.3635
Pt 15.195 10.5136 21.5367
Pt 16.0346 22.7783 11.2677
Au 16.163 4.88383 10.5787
Pt 11.2689 7.67064 14.6549
Pt 9.22701 14.3087 15.4753
Au 19.7268 13.3416 21.5945
Pt 18.2982 17.2937 8.42801
Pt 17.0024 15.7226 15.7387
Au 13.4717 24.055 19.008
Pt 16.3007 9.04424 14.386
Pt 15.1906 15.6516 20.3939
Au 17.0483 4.61768 14.5535
Pt 16.6539 18.0525 10.5188
Pt 10.7691 17.7673 12.6778
Au 9.24384 10.4807 8.59421
Pt 12.9949 6.55707 16.488
Pt 12.8308 16.2405 19.0356
Au 12.8896 9.33133 22.0023
Pt 13.4375 6.23087 13.8871
Pt 13.0563 21.2971 14.0876
Au 16.2684 6.85353 7.69659
Pt 10.1645 20.3462 21.3204
Pt 8.56877 21.5615 14.4463
Au 6.37742 12.3261 11.9443
Pt 17.7097 13.6908 7.91076
Pt 20.9625 16.6618 13.4891
Pt 8.7169 16.0726 13.0683
Pt 19.6564 12.287 14.8672
Au 11.8528 19.0071 23.1513
Pt 14.6503 16.4482 9.51524
Pt 13.9359 22.6625 16.3623
Au 24.6746 15.6382 16.0178
Pt 14.9405 23.3059 13.7605
Pt 10.0214 19.416 10.3323
Au 14.0666 10.9509 6.2901
Pt 13.95 15.5842 6.9183
Pt 11.6073 18.2076 20.4899
Pt 14.1679 11.3275 14.5274
Au 17.8229 7.02757 19.1902
Pt 8.63103 18.8183 14.5294
Pt 20.1534 21.2981 10.9254
Pt 9.37802 17.852 21.9358
Au 20.8331 15.3862 19.6199
Pt 19.7527 14.847 11.8569
Au 15.5592 13.4038 6.08708
Pt 12.7216 11.7566 20.4141
Pt 7.2041 15.8766 15.4587
Au 10.4275 7.47435 17.2794
Pt 21.9502 20.5143 12.5765
Pt 17.6273 11.2041 17.9415
Pt 13.5787 11.4789 9.00204
Au 8.55912 15.2834 22.2583
Pt 9.23465 9.21072 15.1692
Pt 16.4424 15.861 7.4146
Pt 22.7433 18.2212 12.6209
Au 14.5757 4.47015 15.7345
Pt 13.1468 17.8436 7.70853
Pt 22.9241 17.7857 15.2946
Au 17.662 22.2898 20.5344
Pt 15.0466 20.5633 12.1189
Pt 13.8612 11.5193 11.8944
Au 6.18601 16.1424 17.9332
Pt 9.73635 10.4995 12.65
Pt 11.657 15.3173 16.7465
Pt 20.2873 11.5518 17.4786
Au 24.3322 13.3292 13.9558
Pt 8.56106 13.9446 19.7899
Pt 6.89066 16.6873 11.0802
Pt 11.3104 13.8728 19.0787
Au 8.35437 21.4457 11.6445
Pt 10.9829 14.7517 13.6465
Pt 8.18278 18.755 11.9528
Au 20.4876 10.0923 7.18963
Pt 10.0148 16.8009 15.329
Pt 17.2663 8.44059 16.8933
Pt 15.1082 9.8972 16.9111
Pt 14.4606 8.55281 12.4606
Pt 16.0439 13.6727 14.2416
Pt 19.0401 18.8585 16.7482
Au 18.8643 23.529 11.6683
Pt 12.1237 15.4235 8.95907
Pt 10.3587 20.4366 12.9914
Au 10.4598 17.6688 7.91286
Pt 8.78263 13.284 12.9406
Pt 16.732 9.3748 19.5279
Pt 13.0818 13.5297 10.5155
Pt 19.2239 9.74698 15.8579
Au 12.4998 24.0975 14.475
Pt 17.6969 20.7408 11.7652
Pt 15.8845 22.8919 18.3598
Au 14.8603 4.03998 13.0108
Pt 18.9576 20.516 18.8864
Pt 23.6687 15.9636 13.4169
Au 18.5859 23.1466 18.0122
Pt 12.2174 13.0116 15.7352
Pt 19.3952 9.06802 18.4049
Pt 19.8136 8.7644 9.6057
Au 6.44581 20.1731 13.6535
Pt 16.5499 23.352 15.9236
Pt 12.9523 13.2457 7.23639
Pt 18.9742 13.0989 10.1151
Au 10.9052 11.0299 22.3698
Pt 7.4834 10.7157 13.757
Pt 9.2832 18.4371 19.2796
Au 22.772 16.8345 17.8983
Pt 7.87888 14.4258 10.6727
Pt 18.1832 7.22144 14.4278
Au 6.37016 18.8573 18.7055
Pt 16.2527 16.8144 22.5833
Pt 19.9688 21.3259 16.3518
Pt 11.7589 7.2496 11.9882
Au 23.9503 10.6406 15.2913
Pt 9.66243 11.8621 14.9561
Pt 14.1691 18.9174 14.2539
Pt 15.1832 12.6111 16.6207
Au 9.20298 7.87205 12.7863
Pt 15.2153 14.8132 11.6263
Pt 15.5071 10.1615 10.4017
Pt 9.16738 15.6329 17.8352
Au 18.2169 19.0902 21.1121
Pt 17.1218 11.3056 15.272
Pt 19.5104 10.969 20.112
Pt 17.2789 11.9072 20.6843
Au 22.4116 21.1706 15.1201
Pt 18.4098 10.6101 10.9672
Au 8.83371 22.6702 17.0037
Pt 18.2415 20.1909 14.491
Pt 20.8277 19.1784 14.7003
Pt 15.2245 16.3845 13.9746
Pt 21.6366 13.6037 10.2705
Pt 9.93022 10.1007 17.5736
Pt 22.1791 12.6186 15.6048
Au 24.8522 12.9432 16.5446
Pt 13.7719 5.8693 11.3332
Pt 13.5761 13.9674 13.4976
Pt 18.5457 11.1053 8.44931
Au 16.2349 12.3769 23.2591
Pt 19.666 19.0939 12.4138
Pt 13.577 17.144 21.7808
Pt 11.6079 12.2854 13.108
Au 11.2398 15.257 6.50966
Pt 18.8449 9.96063 13.3774
Pt 16.7099 18.5672 13.0261
Au 7.70326 9.62248 11.1529
Pt 15.722 20.9928 14.7016
Pt 12.6297 8.96352 17.3728
Pt 19.9507 15.3429 9.08787
Pt 15.6876 18.2331 20.575
Pt 11.6681 10.3759 15.4259
Pt 14.0174 9.22038 19.5634
Au 18.826 7.9105 7.27194
Pt 17.2447 14.3841 21.668
Pt 14.499 8.99957 8.11258
Au 8.02819 17.9149 9.09164
Pt 15.2987 7.43799 10.1129
Pt 15.5378 6.8642 15.5197
Pt 11.1796 17.8966 17.5744
Pt 18.5182 15.9201 17.8607
Au 23.9155 14.3488 11.3519
Pt 15.5609 16.4253 17.9479
Pt 9.7045 16.5945 10.6566
Au 12.5628 7.03514 9.15799
Pt 17.4701 15.8616 12.6872
Pt 6.8962 13.0855 14.802
Au 10.4071 23.1591 12.8738
Pt 7.2898 13.7347 17.3499
Pt 18.0013 6.75124 9.92963
Pt 11.1424 21.7194 10.7435
Au 18.191 22.3169 9.40643
Pt 18.6803 17.452 14.4607
Pt 17.4404 22.6137 13.5953
Pt 17.3617 21.0468 16.8923
Au 21.7406 19.4252 17.3071
Pt 21.8692 16.2201 11.0475
Pt 11.2155 16.2344 22.6914
Au 17.3129 5.62319 17.0172
Pt 9.77206 12.7156 17.435
Pt 16.2799 20.6039 9.48857
Pt 19.3901 14.8587 14.6184
Pt 12.1906 22.1992 20.785
Pt 16.2793 11.1001 12.7649
Pt 12.1043 9.62983 12.9241
Au 20.3963 12.9866 7.66416
Pt 21.8288 13.9509 13.1407
Pt 14.8944 22.4897 20.8364
Pt 22.9083 14.1953 17.8214
Au 21.7839 9.8584 19.3486
Pt 12.5746 19.8064 11.8511
Pt 12.7975 14.5927 21.2399
Pt 21.1451 9.55102 11.7905
Au 21.3996 18.8462 10.2606
Pt 12.5188 20.3239 16.6875
Pt 12.0475 17.8058 10.1487
Au 23.0452 11.6875 11.9217
Pt 13.543 19.9205 21.0883
Pt 10.5363 13.5642 21.7238
Pt 17.2997 15.3367 10.02
Pt 20.7089 8.19066 14.2991
Pt 17.1611 8.46949 11.8284
Pt 15.0268 13.9684 8.76337
Au 5.71942 18.226 15.9603
Pt 7.67273 11.1421 16.4189
Pt 11.3539 11.3352 10.5744
Pt 16.3794 12.6419 10.5331
Au 11.9352 20.1918 8.56972
Pt 11.5071 19.02 14.8219
Pt 18.0155 13.0654 12.7552
Pt 8.77738 11.9829 10.6643
Au 13.6132 21.5017 23.0749
Pt 7.26321 20.349 16.3828
Au 18.3139 5.28789 12.2458
Pt 13.003 9.21075 10.4237
Pt 8.3654 20.7659 18.829
Pt 11.3953 9.39678 19.7259
Pt 21.5887 10.6142 14.116
Pt 13.6853 21.4159 18.7971
Pt 13.4094 12.1517 22.8388
Au 8.08073 12.9969 8.3237
Pt 10.0865 11.6231 19.8584
Pt 13.1057 22.8136 12.0443
Au 12.568 6.95541 19.1598
Pt 23.0068 11.481 17.7554
Pt 13.7571 18.6808 18.8367
Pt 16.0292 11.4934 8.02947
Pt 20.9823 11.1593 9.68763
Au 14.6901 18.895 23.5499
Pt 13.6999 8.70527 14.9673
Pt 15.1423 7.34752 18.096
Au 13.3332 16.6181 24.3535
Pt 20.0222 21.8192 13.5787
Pt 9.46352 15.2046 8.56388
Pt 11.2146 20.3674 19.0114
Pt 21.695 9.45692 16.5836
Pt 10.9565 22.0922 15.3114
Pt 13.6528 17.5797 16.4809
Au 11.7753 9.75129 7.99817
Pt 20.4403 14.1682 17.0836
Pt 12.6415 16.6057 14.2851
Au 20.105 17.989 19.1561
Pt 19.5516 7.57631 12.0025
Pt 12.3993 11.5124 17.8801
Pt 7.67887 16.6207 20.0537
Pt 18.9319 13.456 19.124
Pt 10.7909 12.8466 8.56134
Pt 16.4644 18.3019 15.7837
Au 19.7646 7.06496 16.6682
Pt 16.075 20.4881 22.0011
Pt 17.8849 13.4575 16.5522
Au 12.1241 14.1145 23.962
Pt 20.3581 12.0434 12.1997
Pt 14.737 14.7096 23.0732
Pt 10.5178 14.0514 10.9841
Pt 15.1029 11.4992 18.9753
Pt 12.488 15.7672 11.6911
Pt 6.47834 17.4945 13.5338
Au 9.77747 22.7022 19.8278
Pt 8.1982 17.9037 17.0055
Pt 13.8287 13.874 18.5101
Au 7.52611 19.4963 21.0749
Pt 16.4923 13.9801 18.811
Pt 15.026 20.0369 16.9812
Pt 21.4661 12.7189 19.5039
Pt 17.8874 16.4413 20.282
Pt 14.9687 13.1302 20.9794
Pt 13.8091 21.671 9.9268
Au 7.61804 11.5117 18.981
Pt 17.2074 9.01996 8.98485
Au 16.6493 9.41929 6.35985
Pt 14.2378 14.9804 16.0195
Pt 22.2143 15.168 15.4208
Pt 16.1406 20.4951 19.3777
Pt 15.8957 18.3532 7.952
Pt 14.2178 19.1661 9.74922
Pt 6.44553 14.8462 12.9864
Pt 17.2333 18.3638 18.4481
Pt 9.83752 20.1097 16.6965
Pt 19.2056 17.1717 10.9112
Pt 11.4991 22.6769 17.7972
Pt 10.358 8.89354 10.4893
Pt 14.2789 17.6521 11.9161
Pt 10.3132 15.9761 20.1952
