286
Atoms. Timestep: 20199
Pt 7.43419 11.7425 18.754
Pt 10.2204 8.36547 18.8674
Au 8.54715 7.95652 16.7141
Pt 6.59347 10.094 16.9639
Au 7.63851 9.01536 19.1336
Pt 7.95123 12.0214 15.9051
Pt 7.49336 9.42876 14.6683
Au 6.09404 9.89369 12.26
Pt 9.41157 10.4595 17.3121
Pt 9.47646 10.6932 20.1012
Au 8.4997 12.987 21.1157
Pt 6.11463 13.8217 14.5921
Pt 5.57538 11.2982 14.7878
Au 5.15289 12.6202 12.292
Pt 5.81121 12.8993 17.0684
Pt 7.2534 14.3232 18.9942
Au 4.61247 16.4331 14.7161
Pt 9.24298 16.1631 12.7649
Pt 5.44012 15.3765 12.4574
Au 6.02632 14.2176 9.77238
Pt 9.11284 13.8433 14.1029
Pt 7.23828 16.1051 14.4908
Au 5.82603 18.8578 15.1934
Pt 7.15077 16.4625 10.815
Pt 7.95293 18.3174 9.10194
Au 6.79014 20.0533 10.7901
Pt 8.76732 18.4375 11.6234
Pt 7.38273 20.4437 13.3399
Au 8.56649 22.3074 11.6261
Pt 6.36521 17.96 12.766
Pt 9.37607 20.3137 9.86997
Pt 9.92569 8.10668 14.3747
Pt 13.6424 7.17211 16.7462
Au 10.7767 7.38705 11.8074
Pt 11.4061 8.55882 16.4961
Pt 12.8855 8.11626 19.1098
Au 14.2582 8.49174 21.3875
Pt 8.8442 9.45415 12.4235
Pt 11.7062 9.70071 12.9487
Au 7.79288 9.45859 10.0057
Pt 9.84325 10.7049 14.6628
Pt 9.71258 13.0465 18.682
Pt 12.1836 10.9806 15.9467
Au 10.5647 13.1478 16.1803
Pt 11.6746 10.5171 18.5871
Pt 11.4123 12.3313 20.9246
Pt 13.6405 11 20.3416
Au 12.7711 10.7041 22.9308
Pt 11.6067 9.43243 20.9801
Au 10.4567 14.3957 22.445
Pt 7.17772 11.9265 10.5881
Pt 9.26756 11.5492 8.92614
Au 7.99823 13.3865 7.4334
Pt 7.65766 11.7652 13.265
Pt 9.77468 16.3961 15.6017
Pt 11.447 12.4255 13.5876
Au 13.5878 14.0967 12.7668
Pt 8.13776 14.4606 16.5462
Pt 9.39353 15.9573 18.1982
Pt 11.2733 14.8858 19.8495
Au 11.9744 15.3825 17.0656
Pt 5.86589 15.5515 16.9096
Pt 8.9026 15.642 20.7
Au 6.89099 16.9607 19.2724
Pt 9.814 16.4687 10.1836
Pt 7.79944 15.8761 8.37312
Au 12.224 16.9949 6.44779
Pt 7.60881 14.129 12.0854
Pt 10.8093 14.2641 11.715
Pt 8.87613 14.0095 9.84038
Au 14.5882 17.5441 10.628
Pt 11.5458 15.2035 14.2128
Pt 8.60309 18.3905 14.3485
Pt 9.85186 18.6598 17.1524
Au 13.8809 18.1266 13.3251
Pt 7.53394 17.54 16.7818
Pt 9.32075 18.0686 19.8226
Au 7.73887 19.7258 18.5787
Pt 10.3821 18.1833 8.17321
Pt 11.7137 20.4581 8.6015
Pt 13.4099 18.6189 8.32422
Pt 11.4246 18.776 10.7135
Pt 9.89812 20.4181 12.6911
Pt 13.734 20.1651 10.5407
Au 13.4261 22.4649 9.05035
Pt 11.0501 18.0365 13.433
Pt 8.01277 20.276 15.9747
Au 9.00793 22.3606 14.676
Pt 11.308 21.7875 10.7891
Pt 12.4474 20.3792 12.8247
Pt 12.3449 7.20954 14.0498
Pt 12.7887 8.96709 10.483
Au 13.4198 6.3648 11.7108
Pt 13.6843 9.16907 14.9335
Pt 15.6712 7.86964 18.7478
Au 16.0515 5.88923 16.8527
Pt 12.462 11.7041 11.0795
Pt 11.8386 10.9082 8.52239
Au 13.2418 11.8441 6.383
Pt 10.439 9.72037 10.3973
Pt 9.70228 11.8943 11.6149
Pt 15.1808 11.2276 15.6858
Au 15.7839 13.1463 11.3534
Pt 15.9278 8.44618 16.1071
Pt 14.0954 9.81108 17.6766
Pt 18.3173 8.94712 19.4025
Au 13.4123 13.3063 15.4392
Pt 16.0143 10.1166 19.9427
Pt 15.481 10.7048 22.4741
Au 17.0784 8.57158 21.761
Pt 10.2144 15.3461 7.68571
Pt 12.696 14.4088 7.37057
Au 15.4523 18.4545 6.49195
Pt 10.6423 12.7813 7.0455
Pt 11.4025 13.4137 9.39135
Pt 14.1355 12.4147 8.89906
Au 13.7013 14.6673 10.1504
Pt 16.3266 10.9006 12.8939
Pt 14.556 14.5962 17.436
Pt 15.1105 12.1574 18.2877
Au 15.9165 15.8855 12.9038
Pt 12.4457 12.8514 18.1133
Pt 11.4752 17.3365 21.203
Pt 16.035 12.6298 20.6997
Au 16.5206 14.965 19.0088
Pt 13.7162 13.6412 20.1914
Pt 12.8994 15.2232 22.2162
Pt 16.6519 13.0586 23.2173
Au 13.6472 16.1634 19.7265
Pt 14.0702 12.9742 22.6794
Au 15.0605 15.4405 24.037
Pt 14.5474 16.2929 7.87246
Pt 15.1956 20.4606 8.39424
Pt 16.6869 17.7933 8.67788
Pt 12.1531 16.4982 9.13779
Pt 16.5769 19.6971 10.4961
Pt 16.207 15.3949 9.77341
Au 17.7279 20.0571 7.78151
Pt 12.2779 16.4282 11.7977
Pt 12.1887 17.917 15.8283
Pt 13.8523 11.3411 13.2967
Au 14.0535 15.9942 14.9779
Pt 11.6592 17.5431 18.5776
Pt 9.8457 21.2933 17.5055
Pt 13.626 18.9177 19.6434
Au 14.4265 17.3541 17.4084
Pt 11.0167 20.0114 19.6597
Pt 13.9725 17.5613 22.1739
Au 12.5501 19.9218 21.8489
Pt 15.7543 22.1346 10.4522
Pt 13.5002 22.826 11.744
Pt 17.4556 21.5316 12.4392
Pt 14.9484 20.9378 12.7927
Pt 11.653 22.4553 15.9435
Pt 13.5845 20.2551 15.1724
Au 15.9101 23.6399 12.9863
Pt 10.7454 20.187 15.1265
Pt 12.3042 20.137 17.4648
Au 11.8514 22.532 18.7689
Pt 11.2577 22.6447 13.3303
Pt 13.7854 22.8005 14.3878
Pt 14.9889 7.79306 9.94118
Pt 19.0843 8.71311 14.8118
Au 17.5345 6.72788 9.79684
Pt 14.8991 6.68163 14.3682
Pt 18.2151 7.70072 17.0923
Au 17.7528 6.18815 14.6855
Pt 15.9251 11.3846 7.2038
Pt 16.6575 9.43691 8.64356
Au 17.5259 13.0662 5.8911
Pt 14.0893 9.75814 8.17598
Pt 14.9825 10.6046 10.5443
Pt 16.9854 8.92904 11.2263
Au 17.8102 11.4145 10.4411
Pt 14.411 8.72436 12.5028
Pt 16.9556 10.2509 17.5391
Pt 20.4256 10.2977 19.9074
Au 16.0183 13.4349 14.2709
Pt 16.7747 8.54848 13.7709
Pt 18.1681 11.8843 19.1263
Au 22.6355 10.2134 18.2399
Pt 15.1371 13.8673 6.88111
Pt 17.0547 15.63 7.14779
Pt 19.3333 14.3873 7.19868
Pt 17.0484 13.2915 8.67718
Pt 18.9357 15.8933 9.31493
Pt 19.8101 16.8795 12.0013
Au 19.0732 17.4158 7.14066
Pt 18.3909 12.4299 13.142
Pt 18.2738 14.4657 11.3921
Pt 17.0181 13.1721 16.8538
Au 18.5562 14.9021 13.9691
Pt 19.0649 14.3462 18.5845
Pt 18.1479 14.0145 21.0718
Pt 20.7337 12.3324 18.3156
Au 19.1793 15.9243 16.4187
Pt 18.1256 11.1484 21.6571
Pt 17.7769 15.4294 23.2449
Au 19.3728 13.2081 23.4205
Pt 19.1525 18.612 9.5674
Pt 16.4305 18.871 13.0264
Pt 18.877 19.3081 12.0608
Pt 17.4127 17.211 11.2144
Pt 15.995 18.4586 15.5036
Pt 18.3701 17.5377 14.2783
Au 18.819 21.3118 10.0966
Pt 16.5824 15.7249 15.7932
Pt 15.8605 17.5441 20.1436
Pt 21.5952 14.4487 19.5365
Au 17.3059 17.4145 17.8156
Pt 15.6388 15.2084 21.5538
Pt 15.2635 19.8153 21.7141
Pt 20.2522 15.4465 21.799
Au 18.2563 16.7524 20.6816
Pt 16.5307 17.6568 22.7312
Au 19.1641 17.6971 23.2666
Pt 16.1247 21.2316 15.1177
Pt 16.1492 23.5673 15.7722
Pt 18.4417 20.2506 14.5931
Pt 14.95 20.0163 17.395
Pt 16.2886 22.3118 18.1487
Pt 16.4932 19.8939 19.4288
Au 18.4997 23.1974 14.1964
Pt 14.1172 21.42 19.6335
Pt 18.0809 19.5331 21.4421
Au 16.4833 22.0774 20.9767
Pt 13.9883 22.4332 17.0097
Pt 17.6338 20.0775 17.0907
Pt 18.9667 8.92972 9.51991
Pt 18.8461 7.34077 12.3702
Au 21.048 8.03447 10.7997
Pt 16.1819 6.54532 12.1028
Pt 21.6594 9.16904 15.9073
Au 20.449 6.73408 15.688
Pt 18.6085 11.3496 7.83812
Pt 19.6299 13.2436 9.52637
Pt 20.6717 10.7433 9.60641
Pt 19.337 9.89479 12.1034
Pt 20.5113 12.2846 11.7965
Pt 21.9494 11.8163 16.1609
Au 21.1547 12.3729 7.439
Pt 17.7438 10.903 15.1725
Pt 19.5898 10.2973 17.1273
Au 20.7086 8.07191 18.2117
Pt 21.461 14.882 8.65269
Pt 21.144 14.7963 11.4876
Pt 22.3456 12.7771 9.89947
Pt 21.2075 13.5359 14.0372
Pt 21.056 16.1203 14.2549
Pt 23.4442 13.2746 17.8029
Au 23.5101 15.3116 10.4911
Pt 19.3924 12.9605 15.9437
Pt 22.6731 12.1076 20.1298
Au 24.243 14.3905 20.1556
Pt 21.2875 17.1306 9.77332
Pt 20.7571 18.8095 13.9202
Pt 23.3483 15.2501 13.2412
Pt 21.7459 17.1714 16.5546
Pt 20.3608 16.6204 18.8274
Pt 21.4757 14.5125 16.6862
Au 21.3565 19.665 11.0122
Pt 20.3042 12.6376 21.0294
Pt 22.5034 16.5024 20.7527
Au 22.4175 13.9796 22.1526
Pt 19.7151 18.6895 16.4328
Pt 20.1738 21.3999 12.7478
Pt 22.4028 17.43 12.0944
Pt 19.1211 18.9814 19.0643
Pt 18.5297 21.6116 19.3079
Pt 21.9119 18.709 18.7574
Au 22.7133 20.4076 13.4821
Pt 20.5566 18.1225 21.0932
Au 20.736 20.6775 20.4988
Pt 18.5262 22.4061 16.6651
Pt 20.534 20.8752 17.7935
Pt 21.2602 8.48583 13.4131
Pt 22.1751 10.3219 11.6991
Pt 20.3714 10.9558 14.2537
Pt 22.9706 10.7634 14.0618
Pt 23.1334 12.8058 12.3391
Pt 23.7036 13.2237 14.9576
Pt 23.7458 15.6017 15.8483
Pt 23.2368 17.8008 14.4828
Pt 23.252 16.1299 18.3326
Pt 22.2788 19.6506 16.1519
Pt 20.6327 21.4127 15.2666
