286
Atoms. Timestep: 20237
Pt 8.43637 10.7418 19.9167
Pt 8.45457 10.1206 15.3276
Au 8.29103 7.38307 16.5732
Pt 9.70078 8.42623 18.8421
Au 9.60223 11.6563 22.3614
Pt 7.01668 12.0702 16.1918
Pt 10.5271 8.6465 16.0705
Au 6.37721 11.1693 11.2111
Pt 14.8333 8.76666 16.5588
Pt 12.3533 8.00537 19.9211
Au 7.9165 13.2887 20.917
Pt 6.3549 11.142 13.8656
Pt 9.12825 7.74512 13.8834
Au 8.75933 10.2952 9.75585
Pt 12.9693 7.07696 15.933
Pt 9.12555 16.1347 20.8541
Au 4.98352 13.313 14.8948
Pt 9.18856 16.9943 13.9686
Pt 7.49773 15.2119 19.1381
Au 6.17012 12.076 18.8229
Pt 10.4963 14.9493 18.9582
Pt 8.75069 17.3729 18.2524
Au 6.92797 19.2969 17.5558
Pt 11.799 18.9128 11.0185
Pt 12.3635 14.514 10.3011
Au 6.17354 18.8715 14.8545
Pt 7.93677 19.2004 12.8939
Pt 12.4417 19.8356 19.4206
Au 14.3657 24.4526 13.1526
Pt 7.46057 16.8367 15.988
Pt 6.27436 14.3888 17.0694
Pt 11.8314 7.9537 13.7613
Pt 10.6604 6.08374 15.259
Au 14.1871 10.2273 7.29433
Pt 14.623 11.2609 17.5971
Pt 14.0425 6.79605 18.2779
Au 18.8248 16.7206 22.8711
Pt 10.371 11.2037 11.5909
Pt 12.6658 9.68558 11.9994
Au 13.2111 8.13275 9.16459
Pt 9.74631 12.5089 15.8595
Pt 8.5432 12.8887 18.2127
Pt 14.8121 11.7216 20.3004
Au 13.27 18.5537 16.8018
Pt 12.5393 10.8199 19.4051
Pt 10.7161 9.80674 20.875
Pt 12.4641 9.13219 17.5893
Au 15.0278 14.5645 24.1846
Pt 17.3736 8.35799 19.9488
Au 16.2872 17.4168 23.7002
Pt 8.21964 9.80062 12.4745
Pt 8.52636 14.9755 12.4194
Au 5.06286 16.0616 15.2359
Pt 6.3437 13.5415 12.5975
Pt 10.7363 16.9238 16.6961
Pt 12.1452 11.8835 16.9212
Au 14.0821 12.7863 15.1168
Pt 11.9133 14.3924 16.4698
Pt 11.0458 17.6688 19.5774
Pt 12.2688 12.1587 21.755
Au 15.6848 17.5139 17.6432
Pt 7.54584 9.84448 17.6685
Pt 10.4887 12.4035 19.782
Au 5.70722 16.8879 18.0065
Pt 10.6537 13.7212 11.9571
Pt 15.1013 12.8542 6.85383
Au 6.72865 15.298 10.5214
Pt 9.05437 14.9614 16.7973
Pt 9.47585 15.0924 9.8771
Pt 6.66751 16.6248 13.1696
Au 15.3139 18.4587 6.17145
Pt 10.5566 19.1082 13.2039
Pt 8.90633 18.9921 15.5687
Pt 8.8044 21.1764 17.1022
Au 14.3 15.9947 15.5551
Pt 9.03944 19.7523 19.4074
Pt 10.9735 16.538 22.756
Au 7.14983 17.9318 20.2579
Pt 9.39969 19.6318 10.5253
Pt 18.3002 17.5312 12.5184
Pt 16.8294 18.8904 8.44266
Pt 15.296 16.8874 8.51209
Pt 13.4873 21.6092 8.92051
Pt 15.0446 15.6689 6.09575
Au 13.2181 20.1132 6.58845
Pt 11.3698 21.4744 10.4184
Pt 9.4429 21.3609 12.4483
Au 7.85154 21.3644 14.6108
Pt 10.7539 19.4229 17.4305
Pt 14.0714 19.1249 8.98153
Pt 10.386 8.49738 11.4736
Pt 16.4092 11.2213 8.65605
Au 10.6715 5.87594 12.523
Pt 14.7431 10.7387 12.978
Pt 10.0758 10.6614 17.7619
Au 6.62048 8.50109 14.5036
Pt 8.69871 12.3376 13.4728
Pt 12.8915 12.2666 11.3789
Au 12.77 14.0962 6.0162
Pt 14.2807 10.5125 10.0086
Pt 7.51709 14.4338 14.7625
Pt 14.6064 8.10836 13.8199
Au 12.9621 14.8716 13.2121
Pt 16.0469 10.865 15.2206
Pt 10.5328 10.1785 13.9151
Pt 17.2687 10.9991 19.7581
Au 14.6911 13.9949 17.4369
Pt 21.4198 12.0995 19.1625
Pt 16.6116 7.12173 17.8044
Au 19.132 13.8951 22.8407
Pt 11.3239 15.2184 7.99912
Pt 17.618 12.102 6.69439
Au 23.6208 13.3367 9.93091
Pt 8.51101 17.3034 11.1893
Pt 10.363 14.7371 14.4125
Pt 12.8964 12.37 8.37182
Au 11.9838 17.1773 14.5061
Pt 16.603 11.5202 11.2726
Pt 13.0241 10.0547 15.0415
Pt 17.1259 9.74618 17.5755
Au 19.9096 16.2012 6.13656
Pt 11.2565 6.68631 17.8104
Pt 10.5985 23.0321 16.6465
Pt 14.9006 9.22035 19.2477
Au 17.1911 15.1985 17.6489
Pt 13.3653 9.68988 21.6803
Pt 12.4499 18.4449 21.8562
Pt 15.9221 9.73417 21.7752
Au 17.5949 17.033 15.4644
Pt 10.4574 14.135 21.7498
Au 13.2027 16.9793 24.2286
Pt 11.5179 19.6198 8.54607
Pt 10.532 12.7016 9.32351
Pt 22.7767 14.3292 12.4208
Pt 12.9332 17.3083 7.17546
Pt 19.2807 18.2956 8.08595
Pt 10.975 16.4704 11.8646
Au 21.7164 17.3873 8.13736
Pt 12.8575 16.9532 9.77687
Pt 9.60525 18.4779 21.6512
Pt 17.5566 16.3984 9.94247
Au 13.7264 17.5979 12.5373
Pt 12.9108 16.1681 18.133
Pt 10.667 21.8333 18.91
Pt 12.4146 15.7018 20.7557
Au 15.4389 18.6166 14.7161
Pt 10.8443 20.6081 21.191
Pt 14.089 17.9163 19.7923
Au 10.0191 23.3604 14.0682
Pt 16.6772 14.6136 8.03802
Pt 15.6366 20.9968 7.55607
Pt 18.9001 21.3908 12.602
Pt 15.7708 23.0355 9.38267
Pt 10.646 20.924 15.095
Pt 12.9766 19.826 14.3951
Au 18.3769 20.9586 7.93404
Pt 11.969 21.742 12.8249
Pt 12.6391 21.3068 17.0845
Au 12.8835 24.069 17.5025
Pt 13.803 22.8137 11.1656
Pt 16.4194 22.7766 12.0204
Pt 19.5889 11.0839 8.48885
Pt 17.3127 9.51653 12.986
Au 22.3311 11.0102 8.86827
Pt 13.1763 5.69303 13.8099
Pt 17.0241 6.82767 13.1874
Au 15.0869 5.71426 11.9201
Pt 11.7795 12.3733 13.95
Pt 11.6477 10.2326 9.52972
Au 17.4648 14.5016 5.45235
Pt 8.29669 12.8459 10.7748
Pt 15.3776 8.49427 11.3754
Pt 18.2238 13.2044 9.28161
Au 21.6789 8.09717 12.6863
Pt 15.8147 8.6131 8.81083
Pt 15.373 6.17563 15.4718
Pt 23.1628 12.0143 17.1342
Au 15.2027 13.3908 12.7172
Pt 21.0103 13.2978 9.13075
Pt 19.3028 12.2314 20.7669
Au 23.1782 14.2981 18.9058
Pt 21.8143 12.0098 11.3685
Pt 10.3268 17.4297 9.18036
Pt 13.8972 14.8132 8.25081
Pt 15.0996 13.1248 9.82489
Pt 17.4645 16.8021 6.88709
Pt 23.2542 16.6367 14.4283
Au 23.322 9.79345 11.138
Pt 17.874 9.48339 7.52144
Pt 21.2385 9.0182 15.313
Pt 12.8383 13.5115 19.2562
Au 14.9413 15.5311 10.9059
Pt 18.9386 15.191 13.6893
Pt 14.4468 13.9074 21.4977
Pt 20.5276 12.8787 13.4055
Au 16.5705 14.1572 15.0924
Pt 19.2803 13.771 18.6132
Pt 14.4629 11.8516 23.0432
Au 15.7006 21.7059 20.7021
Pt 22.1278 15.6072 10.0633
Pt 18.2736 19.457 10.5997
Pt 13.8551 20.1966 11.6047
Pt 15.8982 20.7281 10.1742
Pt 14.6017 21.779 13.5748
Pt 17.0729 21.7256 14.5964
Au 17.0766 24.414 14.0076
Pt 19.9396 17.3583 10.4342
Pt 16.8163 17.1575 20.8011
Pt 22.2284 16.4883 16.9534
Au 16.1021 16.2002 13.2628
Pt 16.7673 14.978 22.2688
Pt 15.1922 19.1607 21.7768
Pt 16.8985 12.2856 22.2165
Au 18.5441 9.96796 22.0285
Pt 12.6031 14.4546 23.2144
Au 17.871 19.3061 22.2466
Pt 18.1441 22.0591 10.2382
Pt 17.4158 23.3291 16.5397
Pt 15.847 18.1459 10.9645
Pt 12.6398 22.9462 14.9866
Pt 15.1662 22.8277 18.0455
Pt 14.8688 20.223 18.5657
Au 20.6339 20.1574 9.61054
Pt 13.1691 22.2941 19.6034
Pt 14.4735 16.4832 22.0864
Au 13.3282 21.0327 21.9531
Pt 14.9949 21.0002 16.0633
Pt 15.1352 15.5121 19.5848
Pt 19.1377 7.85053 11.7323
Pt 19.9601 10.1999 13.0733
Au 19.4268 7.88209 8.93344
Pt 12.9191 7.12638 11.5477
Pt 19.6466 9.68136 19.5692
Au 17.1685 6.77589 10.2666
Pt 19.616 15.5435 8.64132
Pt 20.0466 14.5403 11.2775
Pt 19.5576 13.6461 6.96079
Pt 19.3125 7.76008 14.3114
Pt 17.9061 9.57677 10.2489
Pt 18.7113 10.3543 15.3794
Au 24.3664 12.1032 12.2736
Pt 17.8797 12.2019 13.5519
Pt 19.0818 13.333 15.7424
Au 14.8696 7.27186 20.939
Pt 19.2387 11.8609 11.1464
Pt 23.7399 14.6148 16.2005
Pt 20.6895 9.65472 10.5372
Pt 21.5076 9.90612 17.6925
Pt 22.3924 18.7974 15.904
Pt 21.3554 13.8195 17.0938
Au 22.9024 19.0027 13.2346
Pt 17.0106 12.4449 17.3329
Pt 19.3475 11.3473 17.6974
Au 21.5484 20.8604 17.367
Pt 22.3334 18.3085 10.6626
Pt 18.4048 19.4383 14.411
Pt 21.3919 14.9257 14.7326
Pt 19.0915 21.3579 16.4698
Pt 16.8612 13.5626 19.8825
Pt 20.398 19.2491 12.3113
Au 24.0501 16.6416 11.8539
Pt 19.6884 15.888 16.6446
Pt 20.8722 15.9204 19.0954
Au 18.0897 5.91542 15.8583
Pt 19.7675 18.764 16.6191
Pt 21.3491 16.5507 12.4713
Pt 20.4572 17.5341 14.5504
Pt 19.4226 20.0498 18.9083
Pt 17.0067 19.4095 19.7065
Pt 18.7493 15.3832 20.521
Au 19.4681 23.1153 14.5388
Pt 18.4103 17.4435 18.4549
Au 21.2196 14.1299 20.9993
Pt 17.1508 19.6416 16.8648
Pt 17.4201 21.7053 18.5608
Pt 16.9976 8.28922 15.3364
Pt 17.4598 14.2279 11.5923
Pt 21.0788 11.5719 15.6285
Pt 22.5169 10.5633 13.5863
Pt 23.134 12.8517 14.5628
Pt 19.2268 8.29057 17.135
Pt 21.4049 18.3806 18.5478
Pt 20.8158 20.4978 14.6072
Pt 19.6046 17.9884 20.6114
Pt 16.5156 20.0338 12.6566
Pt 15.0426 23.6247 15.5906
