286
Atoms. Timestep: 20472
Pt 16.4758 9.56749 11.1044
Pt 17.6747 7.23428 11.0268
Au 21.8128 18.5913 19.406
Pt 13.1183 11.3985 9.57009
Au 11.0796 19.2015 23.027
Pt 15.1498 17.7333 18.0084
Pt 14.9227 12.9173 8.5497
Au 20.4338 8.79092 10.8215
Pt 12.4347 7.24492 9.45292
Pt 17.6903 12.3589 9.72822
Au 23.3195 10.8047 13.8805
Pt 16.2265 14.5536 10.2219
Pt 11.9898 15.8999 9.65467
Au 19.1875 15.7561 6.70574
Pt 15.573 9.33812 22.0965
Pt 17.4077 14.1656 23.0749
Au 9.11082 20.2633 9.05967
Pt 13.6468 12.3887 13.4017
Pt 11.3405 9.56392 19.3345
Au 7.43686 15.6129 8.61919
Pt 20.3033 18.5625 12.2371
Pt 17.868 21.1557 16.3767
Au 8.84983 17.793 7.43112
Pt 9.95217 17.7507 9.76688
Pt 8.18091 13.02 14.5185
Au 22.2725 19.7175 10.8315
Pt 8.40597 17.793 11.9778
Pt 6.74162 15.2029 15.6475
Au 20.3075 22.5795 16.9632
Pt 8.19259 13.6006 17.0982
Pt 13.5055 13.7803 10.8439
Pt 14.7084 12.6288 18.5508
Pt 15.2343 15.2538 19.118
Au 22.738 13.8972 21.0155
Pt 12.2969 9.10023 16.7707
Pt 15.4116 6.58498 15.1675
Au 14.9708 6.38102 10.4404
Pt 9.2568 15.4454 10.6341
Pt 14.2943 21.6149 20.1846
Au 13.6131 22.7825 10.4824
Pt 9.18128 11.3238 10.573
Pt 13.0894 15.4744 23.0741
Pt 13.9934 10.1479 18.8225
Au 16.7223 16.3569 12.2155
Pt 19.8614 13.5196 8.13044
Pt 20.5039 13.1568 20.0178
Pt 16.7401 11.1211 17.0571
Au 7.39731 19.3705 19.3905
Pt 20.8374 11.6544 14.9347
Au 18.821 13.1642 5.62763
Pt 12.5122 19.7354 20.8574
Pt 13.1753 21.1857 15.7355
Au 7.02662 11.3637 12.5014
Pt 11.606 9.52193 10.5778
Pt 15.5086 16.9687 15.4945
Pt 19.7886 14.7513 18.2099
Au 19.3252 16.0515 16.0146
Pt 5.7008 16.3691 13.6303
Pt 21.8233 14.5108 11.8639
Pt 17.3866 16.2433 17.9682
Au 18.3047 11.2585 14.1654
Pt 7.2382 20.1022 13.8822
Pt 13.2549 6.59927 16.5395
Au 8.46056 21.8299 15.5974
Pt 9.31922 21.6722 12.7536
Pt 10.846 17.6596 20.8142
Au 8.54957 8.98587 11.7207
Pt 9.58122 15.2847 15.0784
Pt 13.6752 14.074 21.017
Pt 11.1248 21.8089 10.7255
Au 5.46266 18.582 15.0899
Pt 7.32207 13.533 10.7822
Pt 12.4033 15.9282 14.6879
Pt 9.44013 13.3265 12.2777
Au 17.3135 15.1198 14.5291
Pt 14.1995 8.98473 9.86345
Pt 14.2541 20.2466 18.0505
Au 6.55233 15.06 18.6239
Pt 21.3308 20.8618 15.1736
Pt 18.0041 20.1399 12.0354
Pt 21.191 14.2441 16.0018
Pt 10.9529 16.3156 18.5418
Pt 18.8731 10.9472 11.6042
Pt 17.0814 8.86636 15.3944
Au 10.7179 7.11218 17.4245
Pt 13.6423 9.91395 12.2296
Pt 21.5013 16.1772 14.0168
Au 10.3748 7.01216 11.0832
Pt 12.4107 13.7949 8.0302
Pt 18.7815 17.293 13.7911
Pt 21.3128 15.3536 9.39036
Pt 9.62614 19.5132 14.3032
Au 13.2451 19.6721 6.90748
Pt 7.75472 20.2273 11.3129
Pt 13.1163 11.6582 6.8075
Au 9.78653 20.3106 20.778
Pt 20.7139 9.59221 13.3632
Pt 11.61 11.7368 11.9441
Au 10.4628 13.128 6.35386
Pt 19.2689 10.1527 16.4966
Pt 13.789 8.57347 14.5523
Pt 13.2158 9.1458 21.1388
Au 14.6046 14.91 13.4626
Pt 19.5954 7.90403 15.0509
Pt 11.6852 7.00373 14.6132
Pt 17.3518 17.7509 20.2863
Au 18.5687 13.1455 16.1249
Pt 8.11061 19.2919 16.5612
Pt 23.963 15.4744 13.1964
Au 17.1497 9.26616 6.60498
Pt 12.1621 9.32804 7.95704
Pt 16.5159 16.3477 6.89558
Au 8.60153 15.2409 21.8409
Pt 17.1548 20.1187 9.41032
Pt 6.08494 13.8232 13.1637
Pt 16.3907 10.9032 19.8073
Au 15.8016 14.4615 16.6926
Pt 19.6886 20.2044 10.0916
Pt 16.2095 13.4608 20.9091
Pt 15.9583 11.8544 6.34443
Au 10.6226 16.5309 23.2827
Pt 13.4488 17.894 22.5367
Pt 15.635 19.8798 15.937
Pt 19.7896 7.75442 17.5793
Au 8.79796 10.2878 20.3167
Pt 19.6954 15.9763 11.716
Pt 19.5621 17.5106 18.4625
Pt 13.2345 16.669 20.1653
Au 13.3969 13.5679 15.9022
Pt 15.5507 15.9977 23.9345
Au 17.8157 6.50072 19.347
Pt 13.2181 20.129 11.3007
Pt 9.80544 12.7288 21.2681
Pt 14.55 9.48967 7.12916
Pt 20.6311 17.7749 9.60648
Pt 8.29914 16.905 19.7651
Pt 10.8887 20.174 16.5523
Au 20.1792 14.7375 22.2715
Pt 18.3733 18.0566 8.06558
Pt 15.127 8.59604 17.0479
Pt 12.4065 18.5141 18.4167
Au 17.5666 13.2641 18.6439
Pt 6.48044 16.0323 11.1189
Pt 15.6299 8.18987 19.8295
Pt 10.7388 17.5819 16.0832
Au 21.9147 9.3441 15.9391
Pt 9.40373 9.50628 17.7185
Pt 16.0283 10.6534 8.77418
Au 9.20308 7.12768 13.5988
Pt 14.5461 20.6239 9.11179
Pt 10.4226 17.1336 13.382
Pt 21.9212 16.6094 17.2664
Pt 16.6051 18.7649 13.7669
Pt 18.5429 15.6181 9.32804
Pt 18.5744 21.8167 18.8418
Au 6.24233 17.5545 17.4956
Pt 6.02098 18.4694 12.2855
Pt 14.0993 17.7856 13.3533
Au 20.7979 10.6698 21.0911
Pt 7.90324 17.4929 14.6957
Pt 18.5577 12.3688 21.3973
Pt 8.78669 13.2184 8.64076
Pt 10.0899 15.3721 7.96657
Au 14.4715 20.526 22.5925
Pt 17.6287 6.6261 16.6075
Pt 14.3871 15.5091 8.48705
Au 19.8022 8.22652 20.1653
Pt 12.9904 7.29191 12.0809
Pt 18.3957 9.40485 9.27185
Au 5.92944 12.5252 15.8036
Pt 22.39 19.0538 13.5392
Pt 10.8236 14.1104 16.8852
Pt 23.9089 12.8949 11.9451
Au 11.0457 10.3692 22.0947
Pt 15.5664 18.9063 11.2696
Pt 18.1841 8.84366 12.9595
Pt 19.0608 19.8905 14.4133
Au 15.9963 12.6625 14.6956
Pt 18.4209 11.3707 7.46528
Pt 12.0914 11.9578 20.2131
Au 14.9699 23.4115 13.1341
Pt 20.0068 19.9162 17.4151
Pt 20.5743 21.1307 12.5493
Pt 23.1109 12.1913 16.3556
Pt 19.8515 13.8777 13.6036
Pt 14.3751 14.1617 6.24919
Pt 16.2183 17.1604 9.38595
Au 19.9547 6.82347 12.5926
Pt 9.5259 10.9085 13.4367
Pt 9.96329 8.93352 15.3393
Pt 13.2847 18.5026 15.8741
Au 17.4936 13.4394 12.3543
Pt 16.0206 18.4123 22.7651
Pt 23.6759 14.939 15.8892
Pt 18.2631 15.215 20.4671
Au 12.0268 12.8831 22.9603
Pt 14.2489 16.3311 11.1291
Pt 14.3444 11.5535 21.2555
Au 17.8045 23.731 16.6313
Pt 22.6093 14.1351 18.2699
Pt 12.1037 17.7472 11.4879
Pt 13.7327 18.1076 9.17816
Pt 10.3369 19.5946 11.6492
Pt 10.9347 13.4034 10.0555
Pt 19.761 13.48 10.7738
Au 13.0263 23.803 15.1983
Pt 23.7761 15.1197 10.4724
Pt 14.8094 13.4626 23.3069
Pt 21.2233 9.76146 18.4871
Au 15.3991 11.9762 11.3419
Pt 11.1497 8.92379 12.9749
Pt 17.0525 19.5709 18.4259
Pt 11.6138 15.0112 12.2579
Au 22.4453 12.8896 9.58606
Pt 9.85748 11.593 16.0942
Au 7.11171 18.2335 9.57493
Pt 11.7604 21.1276 18.8403
Pt 13.2589 16.0809 17.1639
Pt 12.0892 19.5542 13.74
Pt 15.4422 22.5987 15.7746
Pt 11.2172 14.995 21.1051
Pt 19.2899 22.5113 14.4822
Au 18.4581 22.6872 11.7624
Pt 8.61715 16.4266 17.2217
Pt 9.80206 18.7456 18.5393
Au 11.9629 15.438 5.91302
Pt 20.759 12.1584 17.587
Pt 16.7887 20.644 20.7992
Pt 10.7091 11.3912 8.33969
Pt 12.465 14.1275 18.7742
Au 16.6301 14.4522 5.01657
Pt 17.1531 13.9457 7.63075
Pt 16.5444 11.5659 22.8196
Au 22.8517 11.6983 19.3134
Pt 21.4389 11.7764 12.0271
Pt 15.5799 16.0972 21.4815
Pt 18.9533 10.9422 19.1038
Pt 15.7743 10.24 13.6337
Pt 11.7084 19.777 9.16118
Pt 18.0077 9.67902 21.3044
Au 7.40146 12.7317 19.9257
Pt 13.1687 7.59811 18.921
Pt 16.2711 7.96321 8.77841
Au 8.60167 18.1517 22.0815
Pt 14.0282 17.0808 6.52336
Pt 9.72108 9.0184 9.19779
Pt 15.4475 6.2763 18.0021
Pt 7.50575 11.2116 17.7007
Pt 19.9097 17.368 21.2176
Pt 14.321 10.8922 15.9953
Au 25.0652 13.106 14.427
Pt 22.4226 17.0874 11.571
Pt 20.7957 18.2303 15.507
Au 22.7289 19.3677 16.9636
Pt 11.1596 13.2537 14.3076
Pt 11.6208 17.5694 7.5881
Pt 21.4116 15.8804 19.869
Pt 17.6462 6.48447 13.9013
Pt 9.30366 14.5259 19.3042
Pt 15.5617 7.66728 12.7197
Au 23.6935 17.4768 15.1828
Pt 20.35 11.2132 9.43866
Pt 17.9599 16.6243 22.7791
Au 13.6702 10.693 23.5601
Pt 16.9572 21.6667 13.8672
Pt 13.6189 22.7867 17.7688
Pt 7.64771 10.4281 15.1741
Pt 17.8813 18.352 16.2719
Pt 22.526 13.3974 14.0291
Pt 15.8603 21.5827 11.3138
Au 9.01196 21.3812 18.2796
Pt 14.9148 18.8316 20.3621
Au 10.9885 23.0127 17.0977
Pt 8.12127 15.4005 13.0262
Pt 12.1873 11.6644 17.4804
Pt 9.90864 12.0588 18.6857
Pt 15.7955 18.8962 7.49612
Pt 18.2241 17.9701 10.7235
Pt 18.3782 19.2038 22.3223
Pt 19.3515 19.6754 20.0035
Pt 12.6103 22.1765 12.8947
Pt 17.5517 8.87473 18.2601
Pt 10.8964 22.0395 14.6761
Pt 12.0085 10.7178 14.6928
Pt 16.1244 22.1367 18.3296
Pt 14.609 20.5753 13.5312
