286
Atoms. Timestep: 20177
Pt 9.69318 10.4088 20.2377
Pt 14.1406 6.27193 17.7846
Au 12.1726 5.20529 16.1601
Pt 9.45808 8.89774 18.023
Au 10.854 8.0276 20.4313
Pt 9.54085 11.0041 15.3697
Pt 10.8645 6.97157 14.5179
Au 8.44679 7.56479 12.8654
Pt 11.806 9.9128 18.6747
Pt 12.4335 10.3307 21.1616
Au 9.68001 6.31199 16.8698
Pt 6.83077 12.2066 14.7172
Pt 11.792 7.33839 17.9523
Au 6.38931 12.4919 12.066
Pt 11.4239 9.19021 16.0452
Pt 7.62425 12.1843 19.1277
Au 5.75209 12.5272 17.1558
Pt 9.33575 16.4759 12.2535
Pt 6.4222 14.7679 15.6597
Au 5.71086 14.976 13.1053
Pt 8.25385 14.1656 13.7308
Pt 7.83354 16.6938 14.4743
Au 5.30736 17.375 14.5655
Pt 11.8992 20.1172 13.8919
Pt 13.3712 20.0264 11.6656
Au 5.89724 19.5862 16.1657
Pt 8.08089 21.1058 15.5949
Pt 8.69556 20.9747 18.0278
Au 13.7 24.3397 12.6931
Pt 7.33209 19.2176 13.8815
Pt 8.77744 19.0573 11.6334
Pt 13.3749 7.61304 15.4592
Pt 14.8649 5.33398 15.3493
Au 13.5093 6.36088 11.0246
Pt 14.1674 13.3643 16.5035
Pt 13.511 7.99181 20.0911
Au 19.3955 10.7739 21.488
Pt 7.43983 9.80038 14.0522
Pt 12.8045 8.41781 12.9539
Au 7.14149 9.94286 11.4385
Pt 10.3324 9.40182 13.423
Pt 9.8452 11.6186 17.9472
Pt 16.5708 12.5771 17.3395
Au 12.6102 17.4633 14.1724
Pt 11.665 12.4403 19.7114
Pt 11.6762 12.6695 22.4336
Pt 13.8133 11.5679 18.4723
Au 13.5427 14.1219 23.9985
Pt 15.0934 10.0909 20.1249
Au 9.81212 14.6339 23.1083
Pt 10.9389 7.14201 11.8626
Pt 8.55269 12.0897 10.3007
Au 6.64316 17.3062 11.9853
Pt 8.86753 8.38983 15.5328
Pt 9.8991 18.4675 14.0692
Pt 11.1109 11.2663 11.4823
Au 14.8831 12.4673 13.8686
Pt 8.50617 13.291 16.4329
Pt 9.38745 14.1513 18.9046
Pt 11.0717 14.7414 20.789
Au 11.1962 14.255 16.8863
Pt 7.55907 10.5566 16.8969
Pt 9.36133 12.7168 21.1772
Au 7.68353 14.7042 21.0101
Pt 13.4718 14.998 10.2252
Pt 14.6512 14.718 6.01224
Au 8.38877 14.5371 8.61164
Pt 7.66363 14.7032 11.1558
Pt 10.3495 15.6993 14.6027
Pt 11.9633 15.7824 12.2426
Au 19.1989 19.0737 8.13483
Pt 16.6517 17.9013 8.29846
Pt 8.4343 18.6574 16.3295
Pt 8.88473 15.9409 16.866
Au 18.0392 17.7989 6.02548
Pt 6.85848 14.6532 18.2958
Pt 8.03546 16.7598 19.2929
Au 6.87428 19.1531 18.711
Pt 11.397 18.264 11.7064
Pt 10.8216 20.8441 11.2347
Pt 12.4804 20.2647 9.17488
Pt 14.8457 19.0837 9.75416
Pt 10.0873 22.6721 15.248
Pt 17.1344 20.5051 9.58867
Au 11.4125 19.0278 6.9765
Pt 9.39856 20.992 13.4048
Pt 6.48736 17.0472 17.0102
Au 12.0587 24.5311 15.0831
Pt 11.6077 22.6413 13.1017
Pt 17.0634 18.0889 10.9105
Pt 12.973 5.75809 13.545
Pt 10.5594 10.593 8.9853
Au 16.2479 4.63491 12.9971
Pt 12.4357 10.9204 14.0562
Pt 16.1385 7.64453 19.0238
Au 16.4692 5.1619 17.5243
Pt 9.57366 9.23826 10.9461
Pt 10.7159 15.7252 9.92226
Au 12.3514 13.8043 5.24179
Pt 12.317 8.96215 10.3655
Pt 8.85384 11.6167 12.8567
Pt 14.423 10.7607 16.0599
Au 16.1068 15.6836 10.1411
Pt 15.9212 7.78662 16.1707
Pt 14.0077 8.89448 17.7407
Pt 20.5201 8.55078 17.2072
Au 14.9218 15.015 12.6562
Pt 16.7078 11.3809 22.1097
Pt 14.1873 11.887 22.3596
Au 14.5995 9.19185 22.4811
Pt 12.4926 16.4925 6.60599
Pt 14.2161 12.0586 6.89031
Au 15.3406 17.3537 5.6392
Pt 8.38618 16.9923 9.88437
Pt 10.0765 13.8286 11.7893
Pt 12.9011 14.2242 7.91437
Au 12.7461 13.2111 12.2152
Pt 15.1017 8.59353 11.1796
Pt 10.6916 13.0562 14.3167
Pt 16.431 9.95115 17.7275
Au 16.5028 20.0556 6.90611
Pt 11.9794 11.7554 16.5198
Pt 10.767 20.7437 19.5619
Pt 15.2427 12.7808 20.0674
Au 15.8465 15.2417 17.3348
Pt 13.4997 14.2668 21.4198
Pt 9.59266 16.7264 21.3409
Pt 16.0737 13.9647 22.3008
Au 13.1817 16.2537 16.8637
Pt 12.0532 16.216 22.751
Au 8.64733 19.3392 20.8562
Pt 10.2165 18.9108 9.43982
Pt 14.0275 18.8558 7.34046
Pt 19.9456 15.5447 11.2985
Pt 12.5176 17.523 9.28792
Pt 19.6968 18.0844 10.6066
Pt 14.5677 16.327 8.14903
Au 21.3329 16.7846 8.69009
Pt 14.2237 17.4696 11.7161
Pt 10.9673 17.6568 16.3973
Pt 13.762 10.7463 11.7374
Au 15.2005 16.6072 14.8665
Pt 13.0384 16.7695 20.3776
Pt 10.9551 16.3407 18.7882
Pt 12.4047 18.7431 18.703
Au 13.4249 19.1618 16.3159
Pt 9.69702 18.572 18.6023
Pt 11.2831 18.6062 21.1298
Au 12.0634 22.9792 20.0664
Pt 19.682 20.7933 10.2513
Pt 12.9095 22.4133 10.8222
Pt 17.8897 22.2123 11.6183
Pt 16.0224 20.2598 12.0114
Pt 12.6302 21.9754 15.6143
Pt 14.1721 21.8033 13.3954
Au 14.7357 21.5124 8.48789
Pt 10.7375 20.267 16.4706
Pt 10.8219 22.6827 17.6562
Au 13.1897 24.0501 17.6697
Pt 15.3942 22.4668 10.8951
Pt 16.188 23.4307 13.2654
Pt 12.9649 9.99089 8.03313
Pt 17.4712 8.60216 13.7241
Au 14.2189 7.73259 8.7129
Pt 17.4168 6.01625 15.0452
Pt 19.7536 7.20194 15.0295
Au 16.419 6.34652 10.7269
Pt 11.5594 12.0604 7.08859
Pt 10.7106 13.2194 9.32896
Au 16.5361 12.8668 5.73605
Pt 10.5187 14.5514 7.04759
Pt 13.0481 12.1694 9.56288
Pt 15.1852 10.7403 9.37535
Au 15.3237 9.55621 6.80567
Pt 14.8981 9.42649 14.0163
Pt 18.3412 6.91977 17.4265
Pt 18.6123 8.91828 19.0966
Au 16.7591 14.3164 14.961
Pt 18.0988 8.6852 11.19
Pt 17.5112 11.3181 19.7008
Au 22.8907 12.0857 19.0181
Pt 19.8162 11.8372 8.83801
Pt 10.0777 16.914 7.79032
Pt 16.9057 15.5467 7.02207
Pt 15.7187 13.5058 8.42226
Pt 18.3786 13.5569 7.53607
Pt 20.0134 17.4853 13.3203
Au 19.7183 15.7381 6.68541
Pt 16.4041 10.6401 12.2534
Pt 20.2432 12.8891 11.5992
Pt 13.2462 14.3875 18.8179
Au 17.4914 15.9251 12.484
Pt 18.5168 16.5608 15.7568
Pt 17.3898 14.01 19.6001
Pt 18.8475 12.6439 15.3398
Au 12.9386 14.64 14.5927
Pt 18.6126 13.506 21.8915
Pt 14.8445 16.2534 22.6973
Au 17.4683 15.6865 23.6904
Pt 22.1649 17.2321 11.2633
Pt 18.6794 19.7167 12.3649
Pt 21.3864 19.6304 12.0526
Pt 18.5971 16.2904 9.02879
Pt 14.672 19.2419 13.9805
Pt 17.1109 18.2186 13.7184
Au 21.7908 19.3546 9.42076
Pt 19.3625 14.8061 13.8705
Pt 14.8929 17.6323 18.3206
Pt 21.0402 12.4465 16.9589
Au 16.4771 18.514 16.3808
Pt 15.4163 15.5696 20.0786
Pt 13.2736 20.3676 20.6527
Pt 17.4772 16.7333 21.313
Au 16.3608 18.4243 23.2365
Pt 13.4968 18.5264 22.5635
Au 19.9251 16.0911 22.5308
Pt 17.2685 21.1831 14.1635
Pt 17.2401 23.2719 15.8293
Pt 20.1375 21.7547 12.8948
Pt 15.2261 21.134 15.8822
Pt 15.669 22.86 17.8078
Pt 15.2296 20.2638 18.6284
Au 18.7448 23.8969 13.6366
Pt 13.0612 21.3678 18.092
Pt 15.791 20.5084 21.4523
Au 14.7181 22.6767 20.2359
Pt 14.6081 23.6951 15.3444
Pt 17.5993 20.8133 17.0785
Pt 18.3049 6.47905 12.6578
Pt 20.1955 8.55845 12.9551
Au 19.1497 9.27104 8.58056
Pt 15.3461 6.99871 13.2959
Pt 20.8567 10.3568 19.1293
Au 22.2508 8.6018 14.8359
Pt 17.2131 11.1956 7.76235
Pt 18.0556 13.8453 10.1334
Pt 16.67 8.69717 9.03212
Pt 19.023 10.9073 13.0289
Pt 17.6038 13.0681 12.6693
Pt 22.4564 10.2445 17.055
Au 22.2627 12.0267 10.0126
Pt 16.9169 11.023 14.9932
Pt 18.9086 11.0847 17.4867
Au 17.1727 8.84238 21.3528
Pt 20.5144 14.257 8.98788
Pt 22.4104 14.7302 10.6473
Pt 15.4467 12.8971 10.9606
Pt 23.0144 12.9929 12.4192
Pt 21.0618 15.0258 15.9125
Pt 23.1142 11.5388 15.0059
Au 24.5512 13.7955 14.3317
Pt 18.2613 9.04677 16.047
Pt 18.8512 14.2511 17.4196
Au 21.9993 16.5234 20.3633
Pt 22.7054 17.9823 13.7061
Pt 21.0594 17.7439 15.8052
Pt 23.2508 13.7085 16.6091
Pt 21.619 18.678 18.5448
Pt 17.6512 16.616 18.5923
Pt 19.0394 19.4156 15.0527
Au 24.2693 15.8348 12.4726
Pt 19.8306 12.6618 19.5099
Pt 19.5306 15.2698 20.1173
Au 21.3867 13.7997 21.3861
Pt 19.0553 18.6857 17.5511
Pt 21.4795 20.1629 14.5781
Pt 23.4522 16.0568 15.2051
Pt 17.3032 19.0561 19.4859
Pt 17.2981 21.7482 19.6542
Pt 19.6588 17.9379 20.2819
Au 23.3185 18.9477 16.3202
Pt 15.2224 18.1758 20.7711
Au 18.3667 19.7543 21.8276
Pt 19.0599 22.6295 17.8885
Pt 19.6103 20.5051 19.4016
Pt 20.407 10.4097 15.2174
Pt 17.8364 11.2314 10.3063
Pt 21.1715 12.9243 14.2162
Pt 20.3513 10.176 10.7867
Pt 21.8505 15.3271 13.2734
Pt 21.8032 10.6967 12.8554
Pt 21.7009 14.3893 18.6779
Pt 22.8815 16.5121 17.6336
Pt 20.2837 16.4701 17.9792
Pt 20.8259 20.5811 17.0413
Pt 19.5411 22.0473 15.3972
