286
Atoms. Timestep: 20209
Pt 15.9737 10.1962 18.9797
Pt 13.2725 7.05447 19.0511
Au 18.0038 11.0472 23.2297
Pt 10.3344 13.7695 20.283
Au 7.20476 10.7563 18.2752
Pt 8.81174 12.6235 14.9182
Pt 9.44648 12.3477 9.19094
Au 16.8122 17.6898 24.2603
Pt 11.9198 6.01792 13.0905
Pt 15.5959 8.78849 12.3123
Au 11.281 24.4003 15.1291
Pt 16.8167 16.8042 6.16413
Pt 8.79128 17.1413 9.25805
Au 13.6101 20.0022 6.70174
Pt 9.29314 14.8833 18.0853
Pt 13.2338 8.15334 21.511
Au 9.6392 10.0548 7.56741
Pt 8.94262 17.4028 11.8746
Pt 11.2409 7.85901 11.2492
Au 5.5544 14.3278 12.2531
Pt 23.395 15.5309 16.2911
Pt 14.422 16.8073 19.2184
Au 7.9856 20.0125 17.5085
Pt 11.1356 16.709 10.2997
Pt 22.073 14.1092 9.56679
Au 6.68546 18.4387 15.5726
Pt 16.3625 20.5294 15.9932
Pt 14.0922 24.0445 14.8006
Au 21.1861 21.2041 15.5497
Pt 8.59395 20.5272 14.9094
Pt 13.3068 15.9697 9.25851
Pt 10.6943 15.7289 21.8505
Pt 8.87788 16.4876 20.0693
Au 21.442 11.5034 9.19124
Pt 16.9341 12.821 19.4569
Pt 9.98697 7.69052 13.5091
Au 19.5223 6.47794 13.193
Pt 10.708 13.1501 13.1281
Pt 14.4984 13.0338 22.6216
Au 21.1845 8.33646 12.0599
Pt 8.49127 15.4482 15.4604
Pt 17.7968 9.40513 20.8104
Pt 20.2912 10.0712 13.8379
Au 13.1245 23.2386 10.1496
Pt 15.6028 16.6884 10.3131
Pt 17.8195 13.6241 16.9219
Pt 13.5159 9.67653 19.5251
Au 23.1897 12.4633 16.7613
Pt 20.91 16.6801 15.3575
Au 16.3115 19.4932 6.4432
Pt 12.937 17.008 21.3374
Pt 10.2287 22.3437 13.6913
Au 10.8112 14.7937 5.57377
Pt 11.3144 8.88172 15.3896
Pt 10.0006 18.4581 18.8768
Pt 20.322 12.7632 16.5482
Au 13.1876 12.1949 13.069
Pt 8.56301 10.055 13.9977
Pt 18.4203 15.1732 20.681
Pt 10.4655 19.4794 16.5545
Au 16.117 15.2723 15.694
Pt 8.26697 14.2922 12.8645
Pt 15.9658 10.538 14.4887
Au 8.14375 14.6249 21.7974
Pt 6.9328 16.4295 13.5851
Pt 16.7549 12.7149 8.57839
Au 17.7496 8.14516 8.85474
Pt 7.40261 13.3319 17.0935
Pt 9.38095 10.6131 19.938
Pt 18.0171 20.0462 9.6313
Au 15.5395 5.24542 15.4484
Pt 12.5427 20.7579 9.12663
Pt 12.5081 20.9854 17.6033
Pt 7.9851 12.9217 19.6828
Au 11.4221 11.7106 15.5002
Pt 10.5621 10.1329 10.1737
Pt 10.2558 22.1425 16.4613
Au 10.9574 9.95283 22.1912
Pt 14.6938 21.6121 13.854
Pt 9.34228 20.2202 12.2892
Pt 15.2833 13.9433 10.416
Pt 14.4195 21.2306 11.1413
Pt 14.6662 17.7485 7.87823
Pt 22.3858 18.4695 9.86045
Au 5.98447 15.8401 16.41
Pt 16.9382 10.2082 10.3666
Pt 14.482 22.5782 19.1368
Au 9.16633 12.1256 22.1806
Pt 9.08712 10.4603 16.4289
Pt 22.0551 17.0432 17.9042
Pt 18.1334 14.8959 12.1638
Pt 10.0966 12.6436 6.74397
Au 20.303 8.79302 9.48667
Pt 13.5476 10.2696 14.9301
Pt 13.9197 10.4402 7.13023
Au 20.8782 7.71054 15.073
Pt 15.4975 11.6588 12.0469
Pt 11.2955 14.1935 8.53691
Au 16.3029 6.62186 10.731
Pt 19.7826 12.7426 13.5839
Pt 12.2017 13.6765 18.1809
Pt 12.3378 19.551 19.8781
Au 10.8945 14.3059 15.8633
Pt 13.6709 7.20317 10.9346
Pt 14.4834 6.13307 13.1299
Pt 21.2109 11.653 18.8089
Au 13.3286 15.7959 16.8228
Pt 18.9555 17.4206 18.8191
Pt 18.5474 11.0995 15.5785
Au 11.5072 17.2697 23.868
Pt 17.8116 12.6849 10.9192
Pt 13.7224 13.3687 8.44203
Au 15.2505 23.7358 12.1978
Pt 19.0747 22.0248 13.7464
Pt 6.86103 11.9491 12.9323
Pt 6.40338 13.8392 14.724
Au 14.7212 17.328 14.7711
Pt 12.759 12.9968 6.13845
Pt 14.2888 12.3136 19.9217
Pt 19.796 15.5014 17.3034
Au 15.0895 14.8662 5.13723
Pt 19.3196 8.8038 16.8497
Pt 12.5919 23.5681 17.2963
Pt 17.7461 7.92239 18.6846
Au 6.73152 15.2351 19.0439
Pt 16.4465 16.7546 12.8881
Pt 21.9829 14.2937 18.2066
Pt 13.5457 11.418 17.5107
Au 12.6072 14.5225 11.4043
Pt 11.7528 11.5713 20.0119
Au 6.51269 11.1555 15.5634
Pt 17.554 14.3277 6.58401
Pt 8.91823 7.95663 15.8601
Pt 11.8716 12.2362 10.6293
Pt 15.385 12.5506 6.44992
Pt 18.6777 20.1005 20.1111
Pt 15.4217 20.0028 8.94009
Au 22.3757 11.0085 11.8025
Pt 11.3557 18.39 12.261
Pt 15.2796 7.96237 14.9117
Pt 20.709 17.9693 11.7237
Au 12.9163 14.9496 14.1847
Pt 7.23662 18.9808 13.0761
Pt 9.05419 8.61898 18.3246
Pt 13.7088 19.4188 13.0235
Au 10.507 15.8383 13.2765
Pt 13.8583 19.7412 15.7068
Pt 18.1966 17.4436 10.941
Au 12.5117 23.5159 12.7433
Pt 11.0744 10.2604 12.9698
Pt 10.5409 16.4188 7.58118
Pt 16.7228 18.4077 19.5897
Pt 17.2353 17.7426 8.51947
Pt 18.7897 19.7512 14.9712
Pt 12.6963 18.2656 17.6718
Au 7.62193 19.218 10.4253
Pt 10.1078 20.9851 18.8672
Pt 11.8879 11.4195 8.15433
Au 20.8218 15.6914 22.5406
Pt 11.2434 20.066 14.2184
Pt 13.5262 10.6568 22.022
Pt 21.1538 20.8291 12.6432
Pt 15.0244 8.69276 9.34187
Au 10.5144 5.85685 15.3831
Pt 15.5369 7.91406 20.126
Pt 12.4384 8.90754 8.90257
Au 23.2365 18.7121 12.4317
Pt 8.75106 9.00451 11.675
Pt 9.1157 11.6906 11.7906
Au 7.71591 10.3808 9.67852
Pt 11.8384 21.0731 11.7179
Pt 11.3057 10.0193 17.8334
Pt 16.0696 19.1135 11.3106
Au 8.46146 14.6513 8.19561
Pt 17.8833 10.7975 12.8477
Pt 18.1163 8.65492 14.3377
Pt 20.5799 20.2768 10.2598
Au 14.3084 13.0474 15.4658
Pt 9.76757 14.516 10.7443
Pt 16.0387 11.1276 21.4472
Au 22.6528 19.8026 17.6679
Pt 20.3771 18.7806 16.8488
Pt 14.8227 22.3891 16.6366
Pt 22.6213 16.1956 11.0619
Pt 21.5948 14.2689 15.0047
Pt 20.0933 15.7487 10.1621
Pt 16.847 21.5323 12.3964
Au 24.235 13.7901 14.4522
Pt 16.4094 10.2638 7.71064
Pt 7.34047 13.1536 10.5223
Pt 10.4895 16.8216 16.7736
Au 15.2827 14.3542 12.9836
Pt 18.8711 17.4222 13.6029
Pt 18.0403 19.619 17.6456
Pt 16.6647 9.21303 16.6956
Au 12.0789 17.6067 14.8411
Pt 18.8394 10.943 8.74306
Pt 15.6087 15.2234 23.4796
Au 10.7355 21.0362 21.5406
Pt 22.2093 11.8734 14.3506
Pt 16.4778 19.2184 13.8593
Pt 18.6222 22.0009 16.3342
Pt 13.4362 18.6775 10.3502
Pt 12.5031 22.0257 15.1162
Pt 18.739 19.751 12.2371
Au 16.5215 22.4413 9.86354
Pt 20.3203 13.2308 11.1193
Pt 11.1244 8.49358 19.9629
Pt 19.7979 10.6628 11.2261
Au 13.673 16.8086 12.2378
Pt 8.01192 17.2487 17.5236
Pt 11.9618 22.4862 19.6521
Pt 16.1153 11.762 16.9032
Au 22.8285 9.34364 14.156
Pt 18.5257 10.9731 18.2474
Au 14.3667 17.6084 5.28205
Pt 12.0869 18.3036 8.11006
Pt 20.8415 15.9993 19.9354
Pt 7.30248 15.7676 10.837
Pt 14.6761 18.9067 21.0461
Pt 12.9428 15.0839 23.264
Pt 21.171 18.8754 14.1544
Au 19.0869 22.3013 11.0519
Pt 9.24299 17.9806 14.538
Pt 16.1753 21.0494 20.6568
Au 20.1621 9.23198 19.4515
Pt 19.1292 11.6686 20.796
Pt 19.1432 17.6269 21.4502
Pt 12.9626 8.31348 13.359
Pt 17.1063 13.379 22.0468
Au 21.9155 16.4015 8.23446
Pt 19.923 18.1599 9.00032
Pt 15.4469 14.7859 20.6512
Au 15.6433 8.84532 22.6143
Pt 23.0871 18.1146 15.6345
Pt 17.6976 6.7958 16.0396
Pt 19.2493 16.0659 7.56229
Pt 13.6873 8.74878 17.0496
Pt 13.0426 15.6906 6.69906
Pt 19.5052 13.3779 22.7765
Au 9.48062 7.93727 9.24896
Pt 9.91165 12.3553 17.8915
Pt 19.518 13.5206 8.49663
Au 10.1902 14.192 23.8014
Pt 14.5279 11.2783 9.55306
Pt 16.957 6.56292 13.3604
Pt 17.128 13.0009 14.2451
Pt 15.4637 6.95084 17.5541
Pt 18.2428 15.6667 23.2353
Pt 21.2938 10.3374 16.3942
Au 18.1563 11.807 6.32192
Pt 23.0176 16.2498 13.6774
Pt 20.9562 18.7957 19.5761
Au 20.3081 21.2027 18.2813
Pt 16.9549 21.8876 18.3406
Pt 18.8341 14.9878 14.8179
Pt 20.6402 15.4834 12.7873
Pt 18.0447 17.2916 16.1445
Pt 10.5155 18.2837 21.3788
Pt 15.4984 15.2132 7.83195
Au 18.8923 18.6071 6.59492
Pt 13.2362 9.91078 11.3113
Pt 12.9149 14.4342 20.6568
Au 17.341 13.4392 24.6083
Pt 14.9681 14.0856 18.046
Pt 16.6986 22.9546 14.7405
Pt 11.8174 12.7035 22.3857
Pt 13.6321 21.389 21.2914
Pt 15.7123 17.9568 17.1228
Pt 16.4123 16.879 21.6371
Au 14.4781 22.2579 8.06133
Pt 16.9773 15.7737 18.4667
Au 15.1018 20.2384 23.3768
Pt 14.3263 17.5503 23.4316
Pt 19.409 13.5729 18.9873
Pt 11.2437 7.32555 17.4825
Pt 17.6107 15.1245 9.46355
Pt 22.5672 13.7281 12.3452
Pt 18.3376 8.31904 11.6099
Pt 21.1716 13.5513 20.8055
Pt 11.52 16.2185 19.202
Pt 13.0932 6.59773 15.5409
Pt 12.5781 19.4068 22.6359
Pt 17.2581 19.275 22.1977
Pt 10.3885 19.306 9.97956
Pt 14.8413 20.0402 18.4933
