286
Atoms. Timestep: 20359
Pt 20.8023 15.2309 8.27957
Pt 14.0469 20.5949 12.5488
Au 15.9696 5.61506 16.5181
Pt 18.3457 19.8128 8.98711
Au 22.1464 9.69956 11.4563
Pt 14.5192 13.7557 6.67648
Pt 18.1682 21.0582 11.4489
Au 10.1419 10.8126 21.3771
Pt 14.7785 16.1374 20.8159
Pt 10.0726 17.0042 11.5436
Au 12.3885 8.67005 21.2322
Pt 16.0227 18.1808 22.2087
Pt 12.5089 23.328 17.9897
Au 11.1724 5.90806 14.5024
Pt 10.0648 20.3869 15.9882
Pt 14.0836 9.61491 19.0313
Au 11.6656 22.4357 20.5363
Pt 14.4586 12.6414 10.6938
Pt 12.7583 14.6273 17.668
Au 14.4404 5.77238 18.7496
Pt 13.1793 11.9418 18.284
Pt 11.3721 21.4632 11.6646
Au 17.8941 14.2325 23.4662
Pt 12.4468 8.1294 10.1392
Pt 9.24709 13.8651 8.29175
Au 5.00868 14.6989 18.7769
Pt 11.3732 13.2175 9.85985
Pt 15.4318 10.6986 17.0726
Au 23.0469 19.3598 11.2114
Pt 12.109 21.2511 14.1817
Pt 10.3064 21.9827 18.3786
Pt 14.2506 19.1776 10.4265
Pt 22.9018 10.7418 13.8645
Au 18.0855 21.2636 20.3523
Pt 12.4894 21.1571 16.7143
Pt 19.917 10.8318 10.4462
Au 10.0755 7.33206 11.3707
Pt 15.7321 15.9595 23.3733
Pt 16.3599 18.4392 16.9188
Au 22.0241 15.3356 20.3582
Pt 23.2233 12.0533 16.2338
Pt 13.9381 19.1806 17.5552
Pt 11.6254 14.6953 11.8588
Au 12.5079 5.69506 16.8294
Pt 13.6079 13.766 20.2387
Pt 16.1311 20.5471 18.5094
Pt 11.2301 15.8019 15.8597
Au 14.1527 7.60616 8.17311
Pt 14.3508 9.94894 9.59224
Au 14.2231 18.2195 6.07734
Pt 19.8026 10.9727 18.3757
Pt 11.9328 10.7896 10.2667
Au 17.4723 17.5023 6.33779
Pt 15.3827 12.6617 13.2284
Pt 7.54777 16.3429 12.1092
Pt 14.4109 10.2285 14.5037
Au 6.44911 12.2531 19.0467
Pt 20.9397 13.0746 17.3139
Pt 9.47351 21.0212 13.6009
Pt 12.6729 17.0066 10.9787
Au 23.2727 17.4405 16.6022
Pt 11.5649 13.6924 14.2785
Pt 22.2314 12.3296 11.8072
Au 19.2073 23.2684 15.5123
Pt 16.9347 14.1013 11.3913
Pt 16.4752 17.9757 14.3561
Au 7.35878 19.4808 20.3482
Pt 22.3259 15.3638 13.5477
Pt 23.9948 14.2045 11.6862
Pt 16.8335 15.0989 19.0478
Au 18.4882 6.8313 16.5927
Pt 8.79744 10.6935 18.9781
Pt 14.0237 12.4101 22.6569
Pt 9.97391 10.4181 16.6313
Au 16.5799 23.9273 15.8822
Pt 15.0157 22.3724 14.303
Pt 18.0616 13.2335 20.6755
Au 5.36284 16.9672 13.6628
Pt 7.36602 17.6748 17.6915
Pt 10.9788 12.8201 19.3543
Pt 9.75822 17.8559 16.6363
Pt 17.5639 17.2195 9.1001
Pt 12.7685 20.2169 21.4955
Pt 9.47574 15.371 13.6604
Au 10.7207 23.4751 13.4028
Pt 17.106 12.6192 7.06347
Pt 20.695 20.2952 12.0428
Au 23.3574 14.8809 9.15804
Pt 18.8727 10.7588 20.7082
Pt 9.29437 15.3661 20.9384
Pt 13.4085 17.6534 22.566
Pt 15.0565 10.8798 7.09948
Au 8.09444 22.1674 16.8637
Pt 7.56488 11.0933 11.9378
Pt 12.0072 15.6547 20.2525
Au 16.5153 8.84861 8.01319
Pt 10.7347 11.5529 7.78904
Pt 14.7861 10.0023 21.7231
Au 7.07054 13.2073 9.79431
Pt 18.5323 12.9532 9.40252
Pt 13.6988 21.2972 19.2724
Pt 19.7491 8.51257 11.7407
Au 6.79881 16.897 20.5812
Pt 12.6231 6.81069 12.4153
Pt 15.4547 16.1548 7.50878
Pt 13.8973 14.7693 14.9998
Au 10.2178 9.04714 8.92712
Pt 9.99355 20.1953 20.6843
Pt 17.4645 22.8984 13.5211
Au 16.9162 11.5052 22.5156
Pt 21.8043 17.2105 9.71945
Pt 17.4576 12.1196 18.3602
Au 22.4262 17.8569 19.4459
Pt 11.2676 9.94366 18.9618
Pt 17.642 9.23069 10.3471
Pt 17.4489 8.76487 12.9262
Au 19.9611 21.9767 9.88232
Pt 18.8737 11.8979 15.9295
Pt 13.5726 12.354 15.6206
Pt 22.9727 14.7208 16.018
Au 7.44205 20.0085 15.3635
Pt 13.3566 14.9436 22.751
Pt 7.646 17.3482 14.9146
Pt 11.646 13.9277 7.19525
Au 7.97248 9.04115 10.3359
Pt 8.78251 10.5909 14.225
Pt 21.5931 15.0126 11.0672
Pt 21.4033 17.6532 12.3904
Au 18.8759 8.26391 19.4298
Pt 14.5568 16.5001 18.2547
Au 6.15326 20.1129 17.9224
Pt 9.40647 17.5207 19.3069
Pt 17.8461 9.65202 17.2999
Pt 8.78943 19.8768 18.1823
Pt 10.3113 8.34479 13.9223
Pt 16.7275 18.9244 11.1112
Pt 12.0157 18.7401 15.4186
Au 13.2718 23.3712 12.4329
Pt 19.7725 13.1939 11.776
Pt 15.3845 10.294 11.9174
Pt 10.8616 7.91961 16.6427
Au 20.5953 19.8607 19.9696
Pt 21.0715 10.6803 15.7899
Pt 21.3687 8.66881 13.8331
Pt 10.2015 15.1739 18.3487
Au 23.1824 13.6164 18.5664
Pt 6.43196 13.436 16.6313
Pt 19.8307 15.0902 21.7444
Au 5.24797 18.4643 15.952
Pt 8.70044 12.9161 20.4539
Pt 9.56186 19.5421 11.4056
Pt 18.0924 15.0682 7.83504
Pt 11.9643 19.0327 12.5872
Pt 17.4389 16.6349 12.0205
Pt 16.2278 12.9916 15.6579
Au 19.9086 17.7743 7.73737
Pt 18.2145 14.2081 16.8835
Pt 11.0866 16.241 22.6722
Au 18.7519 10.5684 7.98529
Pt 19.857 10.8353 13.2305
Pt 16.5947 20.3245 13.3502
Pt 21.2637 19.649 14.6741
Pt 15.4251 11.9482 20.0325
Au 19.5797 15.6426 5.85193
Pt 11.5271 18.0553 20.7328
Pt 19.7674 15.6192 12.8726
Au 15.0557 5.52815 12.0744
Pt 20.8745 18.6303 17.4092
Pt 21.2372 12.8585 14.2119
Au 7.31535 18.9759 12.7355
Pt 12.7907 16.0427 6.6471
Pt 18.237 13.4932 13.8904
Pt 17.6667 11.5346 11.8315
Au 6.55467 14.2551 21.0398
Pt 5.80141 15.9418 16.502
Pt 14.8444 22.2531 17.0079
Pt 16.4529 11.3926 9.36919
Au 19.8378 13.0398 6.96518
Pt 12.7626 9.46097 12.3799
Pt 14.9241 7.98551 13.1963
Au 17.9288 22.5632 17.9446
Pt 11.4556 18.2669 7.38979
Pt 16.3317 8.41215 15.5032
Pt 13.5071 21.6605 10.1856
Pt 13.4695 14.8605 9.20012
Pt 12.6706 11.2907 20.8403
Pt 17.0556 10.816 14.4305
Au 7.8549 16.0515 9.2244
Pt 20.8732 12.7069 20.0382
Pt 10.077 9.93135 11.8607
Pt 14.0918 17.258 15.572
Au 13.4937 20.2784 7.85384
Pt 19.8577 21.0066 16.7648
Pt 8.95794 13.0437 15.0078
Pt 11.7145 19.4322 9.82862
Au 17.6697 6.55737 11.4214
Pt 16.6743 9.72946 19.872
Pt 16.3655 7.70794 18.2568
Au 24.8344 15.6821 14.0783
Pt 21.3563 15.9382 17.7278
Pt 13.0035 23.4862 15.3169
Pt 15.9377 14.0317 8.97744
Pt 20.9614 17.1879 15.124
Pt 7.57777 15.1299 18.7266
Pt 16.1275 15.2542 13.7775
Au 19.8042 12.4663 22.5391
Pt 16.0361 21.0272 9.54039
Pt 18.4864 19.4313 18.3924
Pt 14.0925 5.97028 14.6682
Au 19.973 22.8884 12.5148
Pt 12.0275 17.2672 18.0227
Pt 9.07086 17.8623 21.8386
Pt 14.0479 18.5071 20.0232
Au 11.0437 19.0143 23.1984
Pt 14.1916 7.8377 16.828
Au 4.964 17.4974 18.6041
Pt 16.7863 6.30098 14.0385
Pt 18.3322 16.2747 14.8691
Pt 12.18 16.5786 13.6231
Pt 9.58991 18.0176 9.18327
Pt 14.5425 19.9423 15.133
Pt 18.7508 18.8471 15.7357
Au 21.1227 6.86591 15.6758
Pt 6.77641 14.8188 14.384
Pt 7.42625 10.975 16.5737
Au 18.4442 17.0598 23.4474
Pt 11.2518 13.5229 21.8356
Pt 14.1513 14.9297 12.1495
Pt 14.8546 7.71525 20.4375
Pt 10.5704 22.9453 15.9587
Au 12.7514 11.7681 5.85418
Pt 14.5364 17.8227 12.7544
Pt 11.5273 19.7125 18.6668
Au 23.4869 18.0941 13.9631
Pt 18.5892 16.7832 17.4494
Pt 18.9611 18.5323 13.1827
Pt 6.5963 12.0717 14.2939
Pt 18.3852 18.788 21.2665
Pt 9.9817 12.5014 12.4429
Pt 11.0568 15.8873 9.15507
Au 23.9208 16.7829 11.4703
Pt 12.5862 9.71497 7.71462
Pt 15.7341 22.3955 11.6518
Au 9.81125 16.1834 6.89544
Pt 15.606 20.3287 21.0057
Pt 19.5247 14.6602 19.0921
Pt 19.1319 15.4395 10.2514
Pt 19.7361 17.2014 19.6662
Pt 13.4746 17.5346 8.61111
Pt 8.56411 15.3494 16.2996
Au 8.28333 8.43332 15.8167
Pt 12.6997 8.16441 14.7535
Pt 21.2164 12.9288 9.40433
Au 20.8182 17.6599 21.9455
Pt 11.13 12.7489 16.6667
Pt 13.3704 12.2344 8.43028
Pt 17.5461 16.0775 21.2446
Pt 11.4329 10.8261 14.3889
Pt 7.47807 13.6014 12.3731
Pt 19.1169 20.9887 14.1549
Au 16.812 14.8547 5.51972
Pt 8.78013 12.9604 17.7213
Pt 15.8062 18.8386 8.19448
Au 7.78567 8.46543 12.9676
Pt 16.6505 17.8746 19.5016
Pt 20.5269 8.7141 17.3917
Pt 20.3206 14.7632 15.499
Pt 9.80218 18.2764 13.8985
Pt 15.1498 13.6151 17.8584
Pt 15.3657 16.5088 10.3227
Au 23.0212 9.01369 16.0947
Pt 19.0552 9.06346 15.0797
Au 22.4253 10.7455 18.4036
Pt 12.6427 9.96711 16.6734
Pt 9.23768 14.5273 10.8293
Pt 12.8169 12.1449 12.5692
Pt 15.8451 13.9374 21.7435
Pt 19.2752 6.87998 13.7504
Pt 15.3163 7.7911 10.6407
Pt 16.1448 15.7579 16.3663
Pt 9.20513 11.5762 9.91225
Pt 23.867 13.1657 13.9923
Pt 12.4511 7.58664 18.7869
Pt 17.0576 21.0422 15.9129
Pt 19.4359 18.1117 10.7028
Pt 21.0139 19.6583 9.4484
