286
Atoms. Timestep: 20742
Pt 11.7007 9.98687 13.3257
Pt 11.1785 16.4513 8.96227
Au 23.8155 11.9527 11.1199
Pt 19.5244 21.7463 11.5537
Au 10.6725 8.5147 20.1853
Pt 16.1388 15.994 19.1609
Pt 21.8654 13.1697 9.75015
Au 16.637 12.4565 5.2727
Pt 7.55275 13.2803 13.9336
Pt 15.9002 9.78662 21.4328
Au 19.9427 6.7921 13.8596
Pt 16.0966 9.96963 18.8918
Pt 17.2489 17.9868 14.2701
Au 5.14429 10.8706 16.9193
Pt 13.4854 6.08183 14.4657
Pt 8.92276 11.0233 13.3701
Au 14.0224 18.9012 6.43609
Pt 14.2068 11.963 20.4771
Pt 13.4617 13.4086 11.3156
Au 11.6326 5.86843 16.4966
Pt 13.275 14.6416 8.74838
Pt 21.6234 17.4219 11.5379
Au 14.3511 5.99893 17.1342
Pt 17.9752 7.91961 12.3538
Pt 10.354 16.2118 15.3305
Au 20.5858 7.59076 11.221
Pt 17.3298 16.1199 21.967
Pt 20.3829 8.77646 15.7441
Au 4.93141 13.2616 13.5277
Pt 14.6089 13.414 6.68588
Pt 21.8402 15.0178 19.6878
Pt 6.13745 15.5927 14.4742
Pt 15.4101 16.8375 12.8392
Au 14.1034 24.119 14.9967
Pt 18.9242 19.6719 15.769
Pt 11.8815 13.3094 20.5127
Au 21.8838 19.95 18.6931
Pt 8.49272 11.8171 16.0878
Pt 15.1302 19.6325 13.407
Au 8.0412 8.293 19.0287
Pt 14.2403 20.6639 10.8798
Pt 18.833 12.6938 13.1696
Pt 23.6041 14.496 14.6824
Au 17.9742 22.3461 19.6019
Pt 14.7097 17.6951 15.3078
Pt 19.0851 12.6241 10.3854
Pt 8.87606 10.7235 10.6824
Au 18.0564 8.70315 20.2226
Pt 11.3453 13.5995 7.43718
Au 10.1211 6.71313 14.2531
Pt 14.1443 16.0334 6.35239
Pt 9.4662 12.5785 9.02581
Au 14.1482 12.7898 24.4235
Pt 17.6827 20.9658 9.74885
Pt 17.7928 14.811 10.0989
Pt 19.734 18.6048 18.0279
Au 16.0091 14.659 23.832
Pt 14.4254 15.626 17.0704
Pt 11.3127 8.33191 17.4785
Pt 18.2759 16.0407 7.5526
Au 16.6369 15.1396 5.5931
Pt 12.5313 19.3005 12.5127
Pt 16.2496 21.8464 11.842
Au 11.4284 18.6219 7.35835
Pt 12.8736 16.1587 11.1107
Pt 20.2398 14.8376 11.5638
Au 17.535 8.55946 7.03979
Pt 20.1339 11.8399 8.16732
Pt 19.0174 22.2514 15.3256
Pt 21.6062 16.2396 13.8068
Au 12.7522 6.80089 19.249
Pt 16.947 18.7111 21.9174
Pt 9.70807 20.9289 15.7548
Pt 16.0288 7.08229 10.9106
Au 17.0004 24.4523 15.4399
Pt 16.338 19.9617 15.8372
Pt 14.2572 19.2425 21.9499
Au 5.28475 12.92 18.8192
Pt 21.1835 18.322 15.8117
Pt 8.38878 20.018 13.663
Pt 7.4424 12.9568 20.4969
Pt 16.5432 7.67027 17.5473
Pt 17.3019 13.0586 8.05287
Pt 18.1717 8.23122 9.77194
Au 22.975 10.1584 15.9826
Pt 23.2235 14.7919 17.5076
Pt 22.233 17.2292 18.0105
Au 10.4388 20.651 8.96215
Pt 15.7202 13.3126 18.3523
Pt 17.4401 19.929 18.3221
Pt 20.2339 13.4605 18.2258
Pt 19.5342 13.0681 15.7865
Au 15.4357 22.2755 9.05454
Pt 11.8984 16.1533 20.8359
Pt 12.278 17.6272 16.5242
Au 15.4091 7.4495 19.91
Pt 13.0901 19.8497 19.6104
Pt 20.9497 17.7316 20.2213
Au 15.7382 24.3676 12.8024
Pt 11.4369 10.7898 21.2742
Pt 18.9645 15.2638 14.1014
Pt 16.2572 17.5864 7.02367
Au 11.9697 23.7118 13.0677
Pt 23.4102 16.845 15.6552
Pt 9.52267 8.69411 12.3405
Pt 17.9313 11.9315 17.6764
Au 20.8418 22.9902 13.5663
Pt 11.5355 11.3514 16.1052
Pt 12.4007 14.6779 15.5414
Au 22.4418 12.3518 19.0417
Pt 18.166 13.5619 22.3077
Pt 13.5135 17.3513 19.0305
Au 8.64602 10.3511 20.8461
Pt 20.6191 10.9674 17.2381
Pt 15.064 7.94984 15.4205
Pt 12.0014 12.5865 23.0161
Au 10.0734 6.33286 18.7505
Pt 14.3181 19.3076 17.3955
Pt 10.5005 18.6217 14.1754
Pt 15.761 9.72665 11.0402
Au 10.598 10.3471 8.06091
Pt 16.7125 17.2185 9.63855
Pt 13.9092 8.67541 17.6249
Pt 15.6322 8.59112 8.74675
Au 13.9083 23.3953 11.0537
Pt 12.3406 8.222 15.1334
Pt 11.0331 11.966 11.7837
Pt 12.6819 16.9512 13.8135
Au 10.9948 21.3803 20.1034
Pt 9.91152 19.7815 11.5467
Au 22.2925 10.5302 9.2589
Pt 18.5155 10.6205 15.0449
Pt 19.508 10.9524 19.5919
Pt 22.6214 18.7664 13.7041
Pt 7.77456 13.6854 18.0552
Pt 14.5257 13.1125 15.831
Pt 16.9592 12.8202 15.1961
Au 24.1007 16.6364 12.9132
Pt 13.4986 10.7731 11.4166
Pt 22.8672 14.4203 11.9802
Pt 11.8166 7.44272 12.3752
Au 8.88564 20.6251 18.391
Pt 15.9396 12.0544 22.6871
Pt 12.0008 22.391 15.6103
Pt 19.5895 16.7726 9.77709
Au 23.5143 19.327 16.5333
Pt 16.8246 14.3833 12.7672
Pt 8.05232 17.8087 12.0089
Au 21.9407 20.1825 11.3022
Pt 19.9998 14.4411 8.542
Pt 11.6913 18.6898 21.4675
Pt 13.8243 14.7234 19.6207
Pt 13.5357 9.33178 20.2609
Pt 18.2974 11.007 6.66293
Pt 19.831 15.5885 21.3124
Au 15.5219 17.3883 23.7738
Pt 19.1266 19.9146 20.3532
Pt 13.8319 17.3065 8.55605
Au 20.0121 9.17174 7.93731
Pt 8.71099 15.7685 10.4184
Pt 14.7304 12.2835 9.07074
Pt 13.5637 14.5283 22.412
Pt 9.61658 12.7102 21.9018
Au 22.3153 8.34203 14.0061
Pt 15.3445 21.4492 18.8931
Pt 21.1322 12.0631 11.9283
Au 13.6839 21.8967 21.0848
Pt 13.2092 20.4014 8.55017
Pt 9.20167 16.1548 17.945
Au 10.4129 22.7729 17.7095
Pt 17.792 14.6726 17.1532
Pt 7.80477 8.48963 14.2541
Pt 7.32153 9.4511 16.5419
Au 21.3776 18.5399 9.04286
Pt 22.2581 9.82866 11.8943
Pt 11.6081 20.2258 17.4128
Pt 9.37653 16.9888 21.0131
Au 5.41452 15.2718 17.5051
Pt 16.3319 15.5243 15.1924
Pt 12.7086 12.4511 13.848
Au 10.6817 15.034 22.911
Pt 16.3354 9.61209 13.7267
Pt 9.69127 14.6562 20.0114
Pt 17.135 11.9164 20.2568
Pt 17.1196 22.262 17.0415
Pt 10.2341 13.711 17.0349
Pt 10.8783 21.2664 13.4861
Au 21.5932 21.1784 15.9675
Pt 15.6816 19.5105 8.76839
Pt 6.6739 12.0668 11.7884
Pt 14.0996 8.55123 12.9533
Au 9.10903 15.0649 7.87979
Pt 8.92835 13.3667 11.6497
Pt 6.67768 14.8971 11.9568
Pt 12.1227 12.0669 9.36895
Au 6.88021 9.46845 12.0255
Pt 12.8101 19.8242 15.0669
Pt 17.9803 20.4841 13.4074
Au 15.0828 23.9185 17.5923
Pt 12.9487 22.3004 18.3801
Pt 15.6416 10.7798 7.18268
Pt 15.2506 15.1971 10.7271
Pt 21.2248 13.7299 13.9286
Pt 10.6102 17.1679 11.8703
Pt 7.00503 17.1726 16.9052
Au 7.12877 13.6764 9.57151
Pt 9.83047 12.1975 19.1965
Pt 9.35787 18.1928 9.57154
Pt 22.2863 12.7861 16.2907
Au 20.2289 20.9292 9.12107
Pt 18.465 18.7727 8.48011
Pt 14.229 11.223 17.6826
Pt 16.6618 17.632 17.2379
Au 7.25324 19.7686 16.1898
Pt 11.3088 9.5146 10.5311
Au 17.6266 23.573 10.4666
Pt 20.2869 13.0348 20.8227
Pt 19.7662 16.0178 18.486
Pt 9.56122 10.0685 17.8416
Pt 19.9229 9.36801 13.1044
Pt 19.6573 21.2776 17.8132
Pt 16.069 6.62333 13.5234
Au 12.8285 11.4843 6.65388
Pt 16.4292 12.5675 10.8645
Pt 10.8338 18.2378 19.0441
Au 19.0392 13.6574 6.12451
Pt 17.8461 7.95999 15.1868
Pt 18.896 16.9173 16.0898
Pt 13.9096 10.4181 15.0724
Pt 13.7033 21.8241 13.3868
Au 9.19427 19.6118 21.0044
Pt 13.5671 8.04547 10.3992
Pt 10.9597 14.3113 10.2726
Au 8.8201 7.21675 16.5702
Pt 14.2308 14.6649 13.559
Pt 21.0417 11.1158 14.48
Pt 12.6367 13.1695 17.885
Pt 18.1719 23.3004 13.1113
Pt 7.1928 15.6809 19.6423
Pt 20.5825 20.4085 13.6453
Au 7.99305 14.9627 22.1748
Pt 13.4191 9.94298 8.70674
Pt 19.9636 10.096 10.4177
Au 19.4268 18.0156 22.3836
Pt 10.1529 13.1791 14.4386
Pt 11.994 18.7289 10.0741
Pt 6.42405 10.9259 14.4244
Pt 21.056 15.3413 16.2212
Pt 15.6124 18.7851 19.7161
Pt 23.2934 12.0002 13.7146
Au 16.3321 21.1415 21.3531
Pt 14.389 21.6791 16.2685
Pt 11.6895 15.6313 18.1819
Au 18.5209 10.8204 22.1705
Pt 18.5421 9.3078 17.5993
Pt 16.2708 10.2611 16.3059
Pt 11.9639 10.6838 18.7431
Pt 8.04002 18.2025 19.044
Pt 7.97728 17.6009 14.5844
Pt 15.3126 12.0248 13.1851
Au 13.6827 10.496 22.8479
Pt 8.13431 14.9494 15.8441
Pt 15.8223 14.1047 21.1259
Au 11.5535 16.0053 6.40861
Pt 18.1415 14.3016 19.7342
Pt 14.4917 18.1451 10.8867
Pt 17.5069 10.6516 9.16729
Pt 14.7298 16.7071 21.3516
Pt 18.1222 17.5208 19.8499
Pt 11.4335 14.7285 12.8548
Au 12.818 17.0554 23.2952
Pt 15.8083 15.1613 8.20332
Au 22.2227 15.8043 9.54233
Pt 13.9725 6.05486 11.9938
Pt 19.7562 17.9858 13.5205
Pt 9.94343 9.41792 15.259
Pt 16.8361 19.1554 11.4269
Pt 9.57678 18.4569 16.6955
Pt 17.9605 10.6394 11.9937
Pt 7.27389 11.1145 18.5757
Pt 18.0569 16.7292 11.9598
Pt 16.1781 22.18 14.4584
Pt 6.04189 13.1578 16.0702
Pt 11.8579 21.5769 11.0483
Pt 8.89 15.555 13.2241
Pt 19.432 19.1239 11.1222
