286
Atoms. Timestep: 20615
Pt 18.4023 13.4861 13.1607
Pt 12.0439 8.35659 10.4217
Au 23.361 11.4209 11.7301
Pt 12.4097 13.7091 17.6821
Au 9.18876 8.1066 19.2558
Pt 11.281 16.6089 20.956
Pt 13.544 13.4461 5.93954
Au 21.4563 20.8897 17.8716
Pt 16.3417 5.87765 14.6864
Pt 14.9085 9.121 19.0207
Au 14.1159 21.2299 22.3078
Pt 16.2457 14.1626 5.65334
Pt 11.885 18.6462 10.5472
Au 7.64685 17.5872 9.78194
Pt 15.8918 16.1916 19.0137
Pt 18.1176 14.9607 18.2177
Au 12.8285 10.8049 5.62225
Pt 7.82443 19.0339 12.174
Pt 7.22565 14.5093 17.1287
Au 9.76689 8.35343 9.15784
Pt 22.3502 16.5858 17.5207
Pt 17.5729 20.606 13.8648
Au 8.81847 22.9341 15.7356
Pt 10.185 17.5956 8.81139
Pt 19.9923 8.38171 14.6623
Au 12.8644 22.9076 9.17714
Pt 11.5054 16.427 15.685
Pt 14.0425 20.1119 19.748
Au 21.0707 18.1805 8.78577
Pt 8.99452 16.6311 16.386
Pt 10.7406 13.3046 9.88565
Pt 11.478 11.2818 16.451
Pt 8.01707 19.4356 16.3524
Au 22.4637 11.8632 9.08202
Pt 15.6049 7.79667 16.3159
Pt 11.7612 9.33008 18.5721
Au 21.6337 10.3581 18.888
Pt 14.1855 10.1302 12.0297
Pt 9.0649 15.0018 21.4738
Au 13.5816 7.25182 8.39667
Pt 7.54566 10.2401 15.4829
Pt 13.3239 7.115 18.1357
Pt 19.0765 12.5178 16.5033
Au 13.9491 12.1019 15.8318
Pt 15.5891 10.217 14.8767
Pt 19.5368 11.3186 20.8708
Pt 14.7535 7.97764 13.6439
Au 19.836 15.5221 22.749
Pt 19.2057 19.4363 17.2408
Au 19.941 20.2833 10.0975
Pt 14.3416 14.0001 22.5833
Pt 11.2126 23.0533 17.0506
Au 8.19598 21.6064 11.516
Pt 10.7993 14.2927 19.7524
Pt 7.09963 17.9333 14.4732
Pt 21.0837 18.3839 18.8576
Au 15.1074 12.5996 13.1752
Pt 18.7383 6.5169 13.2956
Pt 17.8121 16.3244 21.0308
Pt 15.3686 22.3969 19.8736
Au 16.2051 19.6176 6.7983
Pt 10.5088 19.8892 12.5528
Pt 12.2878 7.4995 12.906
Au 10.2915 16.4202 23.3931
Pt 7.26512 16.4652 12.2221
Pt 13.9493 12.6731 10.4819
Au 8.71087 13.2406 7.93823
Pt 7.79039 13.9568 12.5257
Pt 15.1259 13.5653 18.0182
Pt 15.7832 17.6535 8.65785
Au 11.6079 11.2917 22.9663
Pt 14.1558 23.664 13.7021
Pt 14.7255 21.2088 17.5572
Pt 6.72584 17.1494 17.061
Au 11.9392 16.889 13.0659
Pt 9.84037 11.9847 11.9789
Pt 13.2819 18.6824 21.8856
Au 11.6296 7.36583 20.3461
Pt 20.5827 18.1491 11.7888
Pt 12.221 19.0845 14.8702
Pt 21.5545 9.95551 13.215
Pt 15.6419 22.2494 15.2329
Pt 19.1804 9.04673 12.2158
Pt 22.6074 16.7708 12.616
Au 9.80963 7.29605 11.722
Pt 14.75 15.1693 9.78493
Pt 18.5854 16.6728 13.0027
Au 6.24391 12.6897 15.1583
Pt 8.61055 9.77254 11.1829
Pt 19.6315 18.6244 14.3849
Pt 18.0989 9.93535 15.9291
Pt 11.6361 15.7945 10.3803
Au 18.3698 6.94424 10.5845
Pt 12.0104 9.55257 7.98885
Pt 16.4579 8.79874 11.4667
Au 19.607 8.59495 20.1612
Pt 15.7538 13.1715 8.17114
Pt 8.73284 8.85721 13.6385
Au 14.4559 5.18455 16.4944
Pt 18.6196 15.1348 15.2538
Pt 15.2424 16.383 21.7025
Pt 17.5071 12.553 18.8649
Au 13.5555 14.803 12.2411
Pt 9.63418 10.9581 9.13355
Pt 14.2937 9.61868 9.58126
Pt 18.2491 17.881 19.0751
Au 17.3307 17.8909 15.4113
Pt 8.71455 13.5469 14.8956
Pt 23.0748 14.5493 16.034
Au 9.21433 20.4442 20.5155
Pt 12.9451 10.0255 14.2259
Pt 14.0789 17.2728 11.067
Au 16.1092 24.8132 15.33
Pt 19.4983 20.2662 19.8796
Pt 10.9911 9.72043 12.4465
Pt 13.3746 11.3376 18.4284
Au 14.2566 17.1781 14.8311
Pt 13.9007 19.5332 8.48867
Pt 20.3299 12.8935 18.9621
Pt 21.3671 16.0693 10.3243
Au 14.4198 15.8302 4.55451
Pt 17.4163 8.51169 18.0809
Pt 9.89063 14.2391 17.2193
Pt 20.6429 14.6548 17.073
Au 8.75317 17.6729 21.2401
Pt 21.0312 12.4647 12.3635
Pt 18.0934 18.9606 21.7635
Pt 15.0399 11.7534 20.256
Au 12.3744 12.2784 12.8201
Pt 11.5713 14.1487 22.3394
Au 8.39988 7.63881 16.0474
Pt 15.1498 21.1076 12.8373
Pt 7.55469 11.3955 13.1075
Pt 13.7739 11.6183 8.03469
Pt 12.2842 15.9459 6.2284
Pt 13.0679 21.5284 15.5923
Pt 13.3784 20.9079 10.6946
Au 22.7874 14.2515 18.9008
Pt 9.40542 19.7064 10.0968
Pt 18.291 6.97335 16.0773
Pt 19.0494 22.0412 17.7714
Au 16.206 15.5905 16.3637
Pt 8.80968 15.1391 10.2294
Pt 8.33786 12.0678 17.0594
Pt 9.94634 22.5565 13.2397
Au 13.9211 14.5696 14.9926
Pt 12.0051 20.9122 18.1341
Pt 18.787 11.8213 11.0506
Au 12.2428 23.9811 11.7732
Pt 11.9774 10.9893 10.2767
Pt 9.26821 15.9179 13.9085
Pt 14.8069 23.0494 11.1686
Pt 17.318 21.4597 11.1544
Pt 19.8778 20.7368 12.7116
Pt 16.0724 14.0912 20.5458
Au 13.0109 23.207 19.1935
Pt 9.72777 17.3229 11.6077
Pt 11.2648 12.1116 7.50194
Au 17.6961 17.1242 23.6728
Pt 10.871 21.8707 10.822
Pt 19.1296 10.5844 18.2498
Pt 20.0581 21.0241 15.3658
Pt 16.8936 10.5291 7.88526
Au 9.49609 12.3331 21.5441
Pt 10.5553 11.87 18.8012
Pt 20.9565 10.4022 15.9942
Au 18.6517 6.2678 18.794
Pt 7.93053 12.4816 10.4156
Pt 10.4319 15.217 7.94572
Au 10.8168 13.8352 5.66518
Pt 10.5798 14.4415 12.3318
Pt 8.24783 13.3694 19.3762
Pt 17.577 19.7003 9.05854
Au 10.28 6.41962 14.4159
Pt 18.3943 9.47675 9.75721
Pt 15.8156 6.44832 18.6364
Pt 16.0163 18.2488 13.0671
Au 13.6657 16.0289 17.3773
Pt 9.84304 11.2272 14.5088
Pt 10.5577 9.99991 20.7643
Au 22.1735 19.3142 13.6455
Pt 16.6221 23.0987 17.5971
Pt 13.2579 18.7485 17.3143
Pt 23.0125 14.3519 13.5378
Pt 20.6099 15.0686 12.6019
Pt 17.2127 15.518 8.33614
Pt 18.7904 17.4588 9.84283
Au 20.6235 13.2821 7.11514
Pt 12.7686 14.1212 8.40351
Pt 10.9016 8.85681 15.1471
Pt 10.5199 20.9913 15.3396
Au 16.6806 12.9027 15.4698
Pt 13.9365 23.7332 16.6536
Pt 16.7939 23.1738 13.0731
Pt 22.769 11.8956 14.4743
Au 11.3651 13.7127 14.9535
Pt 16.2335 8.03984 8.9791
Pt 15.5278 9.45188 21.8593
Au 15.2322 16.1204 24.3246
Pt 19.3889 11.1621 14.0177
Pt 15.5845 19.4437 10.6779
Pt 18.0905 19.0366 11.7705
Pt 13.4536 19.1627 12.6734
Pt 12.461 21.6249 13.0746
Pt 19.8509 15.5572 8.28591
Au 18.3553 23.1124 15.2918
Pt 16.6513 16.6096 11.0278
Pt 12.9082 7.05366 15.4132
Pt 20.0715 8.33076 17.4241
Au 16.2086 15.3369 13.4719
Pt 6.79383 15.409 14.7356
Pt 13.5367 17.4133 19.6669
Pt 9.48695 9.7468 17.1979
Au 23.6482 17.0989 15.0844
Pt 13.1052 9.73908 20.9523
Au 11.5781 18.6193 6.75822
Pt 14.9955 19.6771 15.1682
Pt 21.6054 18.7422 16.1727
Pt 9.66652 18.4102 14.4213
Pt 16.9182 12.0119 22.0861
Pt 11.2143 18.8747 19.643
Pt 16.5413 13.7114 11.1012
Au 18.0629 22.6816 20.1644
Pt 8.6711 18.4632 18.6799
Pt 17.0924 14.579 22.966
Au 10.3332 22.7784 19.5792
Pt 17.2806 8.40787 14.0042
Pt 14.2299 11.4993 22.7391
Pt 17.1138 10.9129 12.8527
Pt 16.0293 10.876 17.455
Au 18.7161 15.0892 5.96325
Pt 20.6152 13.4266 9.88743
Pt 18.7011 13.8695 20.8337
Au 21.392 13.7904 21.2996
Pt 16.57 16.8625 6.0583
Pt 17.0335 7.68095 20.6055
Pt 18.0299 12.4622 6.49121
Pt 14.3163 7.27109 11.0255
Pt 14.1459 17.9486 6.35482
Pt 13.5399 9.34295 16.6272
Au 13.9816 5.40067 13.4182
Pt 12.4543 12.3595 20.6957
Pt 14.6808 9.31297 7.04878
Au 18.1871 9.57374 22.4703
Pt 15.4855 11.6199 5.96554
Pt 16.3694 6.28543 12.1818
Pt 10.8593 7.32017 17.2379
Pt 8.37511 10.7029 19.4239
Pt 20.2411 15.7151 19.5055
Pt 22.0483 12.3715 17.0407
Au 15.5454 21.6695 8.92765
Pt 18.7738 15.005 10.8236
Pt 17.0545 20.4709 18.9791
Au 22.5135 16.5607 20.3822
Pt 11.7557 23.6769 14.6676
Pt 16.2655 11.2471 10.2557
Pt 20.9215 10.3805 10.6487
Pt 20.7618 13.4705 14.7631
Pt 10.6074 18.8265 16.9824
Pt 14.6994 15.4919 7.22471
Au 18.6769 17.9282 7.20604
Pt 18.1969 13.2129 8.89612
Pt 20.1632 17.7108 21.1825
Au 17.1124 4.8193 17.023
Pt 21.1281 16.3256 14.8391
Pt 9.35306 21.0807 17.8029
Pt 17.2223 10.2447 20.0511
Pt 15.8771 18.493 17.6115
Pt 19.5549 16.9731 16.9439
Pt 11.9018 21.0585 20.8795
Au 10.753 19.0363 22.4682
Pt 16.5482 20.8735 21.5401
Au 19.3008 12.7609 23.1618
Pt 11.0898 16.5352 18.3223
Pt 15.9292 18.5131 20.3797
Pt 8.52318 15.9384 19.0282
Pt 12.9253 17.0454 8.56377
Pt 19.6996 11.1865 8.38628
Pt 22.7948 13.9869 11.055
Pt 12.9574 16.3051 22.9114
Pt 13.4597 14.7977 20.1433
Pt 14.3071 7.34494 20.6831
Pt 8.20225 20.7068 14.1147
Pt 15.6221 18.7124 22.9646
Pt 11.5182 20.4593 8.71018
Pt 17.2336 20.6522 16.3845
