286
Atoms. Timestep: 20278
Pt 6.55232 12.2621 19.1992
Pt 9.48102 8.82747 18.8671
Au 7.88796 8.0725 16.7543
Pt 6.51457 10.9265 16.885
Au 6.95064 9.53344 18.9978
Pt 8.08475 12.5033 15.5238
Pt 7.56797 9.86799 14.6281
Au 6.34053 10.2078 12.1879
Pt 9.14516 10.3641 16.8309
Pt 8.74268 11.1291 20.1625
Au 7.97893 13.4042 21.4901
Pt 6.63672 14.2333 14.091
Pt 5.76143 11.8373 14.4846
Au 5.51569 13.1315 11.9512
Pt 6.03437 13.6177 16.8518
Pt 7.52553 14.719 19.0754
Au 6.02232 16.5307 17.8303
Pt 8.28618 16.3333 13.7914
Pt 5.82499 16.3483 15.1951
Au 6.32185 14.284 9.49537
Pt 9.61218 14.0766 13.964
Pt 7.91947 17.7002 16.1467
Au 5.66562 18.9584 16.3592
Pt 6.11715 16.2797 12.3035
Pt 7.21155 16.6437 9.95938
Au 6.17657 18.9487 10.9987
Pt 8.50756 18.1459 11.783
Pt 7.45671 20.6272 12.7503
Au 8.89383 22.7711 11.6142
Pt 6.59439 18.4587 13.7974
Pt 8.69441 20.4167 10.253
Pt 9.86651 8.42708 14.827
Pt 13.6081 7.70602 17.1763
Au 10.8577 7.26245 12.5035
Pt 10.804 7.49082 17.0373
Pt 12.111 8.70616 19.0085
Au 13.2133 8.53332 21.706
Pt 9.18204 9.43512 12.4962
Pt 11.9807 9.63362 13.3388
Au 8.10264 9.43214 10.1393
Pt 10.0475 11.1051 14.4181
Pt 8.70114 12.6867 18.0056
Pt 11.7147 9.78526 16.342
Au 10.715 13.1634 16.2779
Pt 10.9706 11.1472 18.56
Pt 10.4573 11.9141 22.1442
Pt 12.9344 10.9548 20.3072
Au 11.9345 10.2012 23.4026
Pt 10.7641 9.64355 21.0108
Au 12.3685 12.8632 24.0055
Pt 7.44606 12.0276 10.3758
Pt 9.44417 11.237 8.75151
Au 7.73811 13.0645 7.51081
Pt 7.99457 12.0997 12.9262
Pt 10.2738 16.2037 15.6452
Pt 11.8607 12.4927 13.3018
Au 13.6229 13.6238 11.6073
Pt 8.07204 15.0563 16.3821
Pt 10.2046 15.0576 18.1334
Pt 10.2531 13.363 20.0667
Au 12.7684 15.1393 16.2712
Pt 9.21665 15.8049 20.7261
Pt 10.5443 14.4731 22.5493
Au 10.6928 17.1795 22.5961
Pt 9.76369 16.3246 10.3299
Pt 8.91224 15.7125 7.86252
Au 10.9324 15.5452 6.03463
Pt 8.03312 14.5911 11.7325
Pt 10.7762 14.2757 11.6259
Pt 9.18503 13.7851 9.5625
Au 14.1298 17.6447 9.24904
Pt 12.2491 15.1684 13.6634
Pt 9.43044 18.6752 14.2843
Pt 10.1765 18.9331 16.9322
Au 13.58 18.0953 12.1267
Pt 8.6926 17.1687 18.497
Pt 10.5873 18.0794 20.0441
Au 7.88833 19.7504 18.169
Pt 8.84763 18.321 8.8679
Pt 10.9365 20.1095 8.48707
Pt 13.1266 19.1623 7.39397
Pt 11.0553 18.7598 10.7131
Pt 9.91317 20.4637 12.5202
Pt 13.3668 20.0346 10.1087
Au 13.1591 21.9117 8.38969
Pt 10.7818 17.0566 12.7661
Pt 7.87248 20.3302 15.4506
Au 8.94009 22.5401 14.3834
Pt 11.1588 21.7032 10.4622
Pt 12.4031 20.383 12.6243
Pt 12.4249 7.46817 14.7885
Pt 12.9418 8.16697 11.1554
Au 13.7938 6.26462 12.7848
Pt 14.1204 9.50542 15.3038
Pt 14.6485 8.35323 19.5058
Au 16.118 6.6116 17.6652
Pt 12.7558 10.8817 11.1542
Pt 11.8603 10.8614 7.88386
Au 14.1928 10.7365 6.64044
Pt 10.8561 9.43409 10.2082
Pt 10.0405 11.6425 11.4141
Pt 15.8309 11.4451 15.368
Au 16.0531 13.5005 10.2105
Pt 16.0124 9.29595 17.3173
Pt 13.8911 10.6925 17.8995
Pt 17.2483 8.38515 19.6023
Au 13.0144 12.0456 15.6801
Pt 15.7896 10.5766 20.1112
Pt 14.2159 11.0412 22.4333
Au 16.0275 8.90576 22.1033
Pt 11.4385 15.0297 8.57978
Pt 13.0587 13.4205 6.96765
Au 15.5983 17.8387 6.68193
Pt 10.4019 13.1148 7.15864
Pt 11.6571 12.7297 9.63887
Pt 14.0444 12.0535 9.06642
Au 14.0809 14.8058 8.97323
Pt 14.2958 11.4031 13.2865
Pt 14.7311 13.3928 17.1892
Pt 16.5754 11.9169 18.0115
Au 15.2036 15.9085 11.6219
Pt 12.5097 13.2865 18.6283
Pt 11.876 15.6024 20.3116
Pt 14.922 13.0358 20.077
Au 16.7434 14.8557 18.9181
Pt 12.6755 13.3028 21.3994
Pt 12.9367 15.5233 23.0016
Pt 16.6844 11.662 22.5671
Au 14.0203 15.6413 18.6547
Pt 14.8166 13.4942 22.9502
Au 15.5074 15.754 24.0949
Pt 13.272 16.3871 6.96806
Pt 15.3949 20.0463 8.20758
Pt 17.6918 18.3886 8.46152
Pt 11.2441 17.5317 8.24149
Pt 16.1514 19.1659 10.4981
Pt 16.3705 16.2666 9.05419
Au 17.8071 20.9702 9.1361
Pt 12.4224 16.1676 10.745
Pt 12.0106 18.0266 15.0839
Pt 14.5526 13.9659 14.43
Au 14.3604 16.7576 14.3557
Pt 11.7794 17.1372 17.8816
Pt 9.65568 21.5653 16.9098
Pt 12.993 19.1306 19.1201
Au 14.2433 18.0232 16.9991
Pt 10.6491 20.4937 19.051
Pt 12.9928 17.6826 21.4231
Au 11.7981 20.1571 21.4254
Pt 15.4556 21.9193 10.0705
Pt 13.3794 22.6414 11.4595
Pt 17.4839 21.4981 11.9368
Pt 14.9421 20.6986 12.2887
Pt 11.482 23.0395 15.695
Pt 14.0199 19.5281 14.61
Au 15.6829 23.3428 12.8962
Pt 11.0772 20.6283 14.8527
Pt 12.3966 20.6441 17.0004
Au 11.4608 22.971 18.4292
Pt 11.276 22.7761 13.0578
Pt 13.6621 22.1944 14.4081
Pt 15.6319 8.17078 10.4079
Pt 19.671 9.32351 14.7561
Au 18.0728 6.92355 10.6497
Pt 15.116 7.05596 15.1062
Pt 18.3509 8.06188 17.0167
Au 17.7749 6.27432 15.1523
Pt 15.8772 12.6542 7.34949
Pt 16.2015 10.3521 8.56621
Au 17.7584 13.6732 5.74132
Pt 13.7085 9.43153 9.06504
Pt 15.4321 10.8418 11.0055
Pt 17.243 9.34244 12.1235
Au 18.0406 11.7478 10.638
Pt 14.7009 8.83552 12.8717
Pt 18.1896 10.6721 16.3806
Pt 21.1874 9.9148 19.806
Au 16.4871 13.0875 12.8436
Pt 16.9406 8.92488 14.7049
Pt 18.6921 10.4664 18.826
Au 23.256 10.1738 18.035
Pt 15.5802 15.115 6.68934
Pt 17.9865 16.3403 6.86546
Pt 19.9169 14.5742 6.99495
Pt 17.7302 14.1828 8.39368
Pt 19.4248 16.1351 9.29622
Pt 20.2494 17.1943 11.6631
Au 20.6174 17.2388 7.25143
Pt 18.4355 14.6171 11.2816
Pt 16.7653 15.6517 13.786
Pt 17.3252 13.4777 15.7338
Au 19.1359 14.2373 13.7883
Pt 18.8715 13.4129 18.0248
Pt 17.5461 12.615 20.3775
Pt 20.9916 11.8422 17.9367
Au 18.5516 15.8412 16.1207
Pt 18.4531 10.1501 21.2987
Pt 17.1376 14.6037 22.2383
Au 19.123 12.8546 22.8599
Pt 19.9913 18.8506 9.42637
Pt 16.3081 18.4944 12.986
Pt 18.7971 19.3704 11.6513
Pt 17.6686 17.0819 11.1591
Pt 16.5775 18.314 15.4997
Pt 18.7248 17.2994 13.8449
Au 20.0442 21.5057 10.3818
Pt 15.7572 15.6802 16.3859
Pt 15.1931 17.7178 19.8505
Pt 21.2694 14.1893 19.1373
Au 17.025 17.4859 17.9447
Pt 14.8412 15.4662 21.1967
Pt 14.4557 19.9468 21.2777
Pt 19.1737 14.6774 20.5806
Au 17.7551 17.324 23.3419
Pt 15.3576 17.7838 22.496
Au 19.8173 15.7145 22.8863
Pt 16.2513 21.0613 14.4629
Pt 16.0678 23.1713 15.7822
Pt 18.4329 19.9242 14.2254
Pt 14.9342 20.7414 16.7433
Pt 16.0697 22.6166 18.3252
Pt 15.9289 19.9933 18.9866
Au 18.3512 22.8716 14.2498
Pt 13.6594 21.6271 19.2895
Pt 17.1417 19.4125 21.3061
Au 15.9752 22.0453 20.9441
Pt 13.746 23.0741 17.0041
Pt 17.555 20.4486 16.9096
Pt 18.2953 9.3016 9.60555
Pt 19.0967 7.49686 13.042
Au 20.6645 8.0254 10.4712
Pt 16.481 6.87892 12.8106
Pt 22.4232 9.09745 15.4043
Au 20.556 6.98201 15.4547
Pt 18.5041 11.7617 7.87661
Pt 19.951 13.4228 9.46407
Pt 20.5084 10.7761 9.51742
Pt 19.7122 9.93188 11.93
Pt 20.4415 12.5323 11.8767
Pt 22.5973 11.623 15.9163
Au 21.2508 12.3024 7.38722
Pt 18.2436 11.3605 13.6865
Pt 20.6627 9.35405 17.2207
Au 19.778 7.79233 19.3049
Pt 21.912 14.9145 8.58149
Pt 21.4472 14.8965 11.394
Pt 22.4416 12.6689 9.85212
Pt 21.7789 13.5927 14.1227
Pt 21.1842 16.0788 13.9228
Pt 23.3359 13.4219 17.5948
Au 23.8997 15.1138 10.4683
Pt 19.9515 12.2629 15.5814
Pt 22.7355 12.1288 19.9225
Au 23.6925 14.6675 20.1574
Pt 21.9965 17.1773 9.71333
Pt 20.8489 18.7916 13.9099
Pt 23.7136 15.2023 13.1726
Pt 21.1987 17.0425 16.3206
Pt 19.5712 16.3334 18.5416
Pt 20.9817 14.4649 16.5505
Au 21.8236 19.6723 11.3589
Pt 20.1201 12.1235 20.506
Pt 21.362 16.318 20.6097
Au 21.6786 13.8616 21.9055
Pt 19.283 18.6309 16.4573
Pt 20.2726 21.2805 12.9681
Pt 22.8582 17.3933 12.1798
Pt 18.7082 18.9561 19.2247
Pt 18.1179 21.461 19.4886
Pt 21.2396 18.3649 18.7608
Au 22.7188 20.5566 14.0183
Pt 17.5735 16.8084 20.7052
Au 19.7776 18.2426 21.5442
Pt 18.4606 22.7294 17.0111
Pt 20.1661 20.7546 18.0374
Pt 21.6268 8.41553 13.0378
Pt 22.3599 10.381 11.3864
Pt 21.3219 11.006 13.73
Pt 23.8043 10.6239 13.7205
Pt 23.3403 12.7423 12.2242
Pt 24.2649 13.1338 14.7528
Pt 23.3508 15.3984 15.7674
Pt 23.1948 17.8062 14.7124
Pt 22.7033 16.1759 18.2047
Pt 21.9435 19.5071 16.3982
Pt 20.2081 21.258 15.5548
