286
Atoms. Timestep: 20239
Pt 19.7932 10.1984 8.68656
Pt 11.2471 9.38989 13.9715
Au 18.939 16.6312 22.6209
Pt 8.16133 15.7469 14.516
Au 13.5813 13.4662 24.1589
Pt 11.9842 14.9574 22.2234
Pt 17.3264 9.97269 7.88878
Au 23.53 13.3865 13.3046
Pt 9.48592 12.4673 17.7056
Pt 15.9978 8.45296 10.9541
Au 23.4014 18.3737 15.9172
Pt 16.3359 10.6447 12.717
Pt 9.20151 14.1942 10.2651
Au 19.4027 13.6322 5.96137
Pt 10.8285 10.3563 18.3429
Pt 20.1079 14.638 20.4717
Au 16.8957 21.1314 6.96957
Pt 9.19729 13.5001 13.2685
Pt 9.82667 20.806 19.1622
Au 8.77198 8.05681 18.2452
Pt 19.6268 19.7154 16.1875
Pt 13.8164 23.2978 11.462
Au 7.86007 12.2355 8.86349
Pt 11.6964 14.1489 9.12884
Pt 13.3954 12.3704 8.37125
Au 21.2545 19.0226 9.23517
Pt 9.37498 14.2369 7.71602
Pt 11.0478 21.1733 16.8757
Au 18.143 23.4958 13.2467
Pt 8.53877 20.3829 14.9723
Pt 14.8653 14.6749 8.3936
Pt 13.4504 11.3404 18.277
Pt 11.6094 7.73554 18.7222
Au 23.5041 13.4156 16.2755
Pt 18.5949 8.0941 16.7206
Pt 15.662 8.38571 16.328
Au 7.10059 9.60384 11.7212
Pt 8.16175 10.2849 16.69
Pt 11.5691 12.4509 22.7814
Au 19.4665 21.1042 8.42342
Pt 14.855 13.534 19.1507
Pt 17.4704 14.7793 21.5048
Pt 19.586 10.8169 13.2277
Au 11.6623 13.7139 14.7986
Pt 20.7754 13.4253 13.0756
Pt 14.5981 9.00858 18.8155
Pt 20.3793 11.9995 19.75
Au 11.7269 23.7139 16.2593
Pt 19.8608 21.369 13.0502
Au 18.0755 16.6514 5.93481
Pt 10.279 14.1341 19.8455
Pt 14.999 18.0338 15.8536
Au 8.75918 22.2421 16.8696
Pt 8.55719 9.02291 14.376
Pt 17.0262 23.054 15.5891
Pt 19.5098 13.5397 17.7716
Au 20.1932 9.30978 18.7114
Pt 8.6823 18.4899 10.9338
Pt 22.4278 15.5623 12.0545
Pt 12.8954 20.0004 21.7691
Au 11.9689 13.6599 17.6388
Pt 18.0379 18.8513 8.18736
Pt 10.3351 11.82 7.91931
Au 14.4692 21.9224 20.3717
Pt 15.8764 18.6255 6.68632
Pt 10.0696 16.2805 18.5112
Au 12.5822 5.28161 13.9283
Pt 11.6387 11.7439 13.1061
Pt 18.9699 17.7563 17.6379
Pt 15.359 16.1635 6.05598
Au 11.6729 22.2007 20.4701
Pt 8.56222 16.4436 9.19767
Pt 13.3424 22.1394 17.761
Pt 12.5605 19.2547 9.7126
Au 13.6652 15.4833 14.6243
Pt 11.3514 9.61271 11.3381
Pt 8.30314 19.57 17.3773
Au 6.51402 17.0321 12.6558
Pt 12.511 20.1247 19.2279
Pt 18.6388 16.9931 9.90163
Pt 21.3307 11.7161 17.2904
Pt 15.3802 19.6262 13.6164
Pt 22.9522 15.6795 14.6598
Pt 22.0839 13.8748 18.6206
Au 6.0969 15.5326 16.0972
Pt 8.23944 10.5664 19.2383
Pt 14.2458 15.382 17.3344
Au 17.0897 6.26589 12.1663
Pt 11.7196 13.4879 6.53655
Pt 21.0688 14.2876 15.7619
Pt 19.6776 14.7957 11.1084
Pt 10.5248 22.1636 14.4197
Au 10.1473 20.8445 9.9568
Pt 12.5469 20.7994 12.365
Pt 14.9731 10.435 6.77061
Au 21.5034 19.1385 20.5085
Pt 20.3814 16.0261 13.6795
Pt 11.3704 14.2101 11.9455
Au 6.94454 11.2765 14.0157
Pt 21.6365 20.1287 14.7368
Pt 11.8931 11.2407 16.0665
Pt 12.9982 8.9683 16.8032
Au 13.8232 9.57678 12.2441
Pt 13.4343 7.96002 10.0782
Pt 16.7253 6.26876 17.3173
Pt 20.6028 15.8825 18.0786
Au 21.868 9.22849 13.593
Pt 14.7917 20.8881 10.9116
Pt 16.8532 13.5755 17.2887
Au 17.1959 11.7819 5.8244
Pt 7.58001 12.4021 11.4628
Pt 10.3066 18.4874 8.80996
Au 15.7145 11.8099 24.3342
Pt 17.2945 14.2651 9.87766
Pt 15.6244 12.3101 10.8561
Pt 15.9541 10.8889 16.9307
Au 16.5865 12.4696 14.6803
Pt 15.2279 22.1677 13.4804
Pt 15.8795 11.2457 19.5214
Pt 22.1563 13.5435 10.5925
Au 6.70679 14.9987 10.6716
Pt 14.5182 18.6313 23.2221
Pt 16.4565 16.7944 17.4344
Pt 17.1594 19.5671 17.2004
Au 9.2767 13.8961 22.3141
Pt 19.554 18.7874 13.5076
Pt 17.1565 18.1166 19.5581
Pt 9.9553 9.0047 20.4293
Au 14.0525 12.8566 13.2597
Pt 15.5933 15.9301 19.8168
Au 17.7508 10.2999 23.0891
Pt 13.2553 16.5893 9.29268
Pt 7.02301 18.0935 15.2922
Pt 19.9906 12.1451 10.5185
Pt 19.2094 15.058 8.20835
Pt 8.92372 15.975 12.0242
Pt 12.5884 21.8677 9.68807
Au 16.2197 14.5401 23.8399
Pt 15.6502 16.3032 10.6514
Pt 18.2147 8.69785 12.4172
Pt 13.0279 18.2155 14.0942
Au 14.2611 12.9836 16.1479
Pt 9.70941 20.5624 12.5327
Pt 20.2882 9.84106 15.7993
Pt 9.01115 18.1251 13.494
Au 18.3463 7.99281 9.66117
Pt 11.8385 17.741 22.8334
Pt 14.723 10.2316 9.47134
Au 6.58074 12.1938 17.8256
Pt 14.0402 18.504 11.6045
Pt 9.8591 14.8206 16.2671
Pt 16.425 12.3321 21.8446
Pt 13.0064 16.2379 12.1318
Pt 17.6968 9.84445 14.9766
Pt 17.9626 19.039 21.7034
Au 10.2572 19.7898 21.6505
Pt 13.2784 18.1713 7.24581
Pt 18.0466 12.6542 12.0589
Au 15.5178 6.9676 22.3765
Pt 14.459 23.5073 15.78
Pt 18.3459 10.4977 20.5138
Pt 9.60723 11.544 15.0396
Pt 11.9165 10.1362 8.93129
Au 7.72074 15.7908 20.3277
Pt 13.2585 7.87742 14.4127
Pt 18.6068 12.4504 8.25488
Au 10.7638 7.69392 9.51345
Pt 9.46802 17.5021 16.0159
Pt 22.0711 11.3518 12.0913
Au 11.0105 22.9327 11.749
Pt 19.1586 19.6272 10.7846
Pt 10.3997 12.0621 10.5295
Pt 20.6014 17.452 11.452
Au 18.7725 6.81019 19.0681
Pt 17.6534 17.8576 15.0272
Pt 12.0762 6.50463 16.2992
Pt 19.6709 17.3342 20.2266
Au 6.4149 14.1207 13.2942
Pt 21.8795 11.7626 14.7415
Pt 10.1558 11.6328 20.6968
Au 20.1983 17.3973 7.40751
Pt 14.9913 20.0007 18.3567
Pt 17.0292 20.856 19.8727
Pt 19.7247 22.2431 15.4097
Pt 17.8195 12.9728 19.6949
Pt 16.0512 12.2735 8.32384
Pt 14.4102 6.58934 12.3017
Au 17.996 7.98385 21.4172
Pt 11.8607 7.19514 12.1275
Pt 12.5231 12.7624 20.3327
Pt 11.2311 18.478 11.9817
Au 14.2613 10.4819 14.8027
Pt 10.9417 16.2936 13.9557
Pt 15.0766 19.0068 20.6983
Pt 15.7005 9.40485 21.2732
Au 13.9125 16.1586 23.9747
Pt 10.9239 16.308 7.70436
Pt 14.1634 6.60422 17.8208
Au 17.6723 23.2288 8.65474
Pt 21.571 18.4632 17.9829
Pt 10.9177 16.4719 10.4031
Pt 16.9892 14.2691 6.78766
Pt 15.2439 18.5089 9.19602
Pt 15.5403 17.0458 13.3515
Pt 18.422 14.388 13.9141
Au 21.2829 21.1887 17.5344
Pt 16.2186 15.2734 15.2841
Pt 16.2695 16.966 22.2282
Pt 13.3142 8.62907 7.54904
Au 16.0633 14.5041 12.5625
Pt 9.14011 9.94499 9.84637
Pt 8.92126 18.3391 19.7797
Pt 7.71399 13.2895 15.6372
Au 22.3351 16.48 19.965
Pt 15.7912 8.27456 13.699
Au 7.01625 19.746 12.85
Pt 12.9962 19.3848 16.6304
Pt 18.706 15.5666 16.1748
Pt 12.9743 11.765 10.8396
Pt 17.335 20.9654 12.2654
Pt 14.0162 11.4168 22.0112
Pt 15.9709 22.4989 18.0007
Au 23.1787 17.8165 10.7828
Pt 7.55588 17.1054 17.8074
Pt 11.1624 9.9525 22.5437
Au 11.7024 20.4167 7.48467
Pt 13.6079 7.23301 20.4033
Pt 13.7326 16.8912 21.3753
Pt 10.3864 8.71637 16.3287
Pt 14.872 6.04502 15.2373
Au 21.207 13.1979 8.12776
Pt 19.217 12.3123 15.3943
Pt 18.4926 11.0912 17.6836
Au 19.1572 12.6431 22.1794
Pt 21.5838 19.8695 11.9037
Pt 13.4406 8.77547 22.5417
Pt 22.9511 16.0486 17.2206
Pt 12.5671 15.4443 19.5644
Pt 13.087 15.5374 6.72824
Pt 17.215 8.98608 18.6873
Au 19.8188 7.67203 14.2341
Pt 16.096 6.91343 19.764
Pt 9.34987 8.09722 12.0099
Au 11.3766 7.30446 21.7108
Pt 16.7389 16.5316 8.23212
Pt 9.25147 10.7655 12.5331
Pt 9.9959 16.399 21.4116
Pt 17.432 6.74141 14.8063
Pt 18.0659 15.5078 19.0115
Pt 12.5657 9.87003 20.3135
Au 22.2021 10.9556 9.47062
Pt 21.3941 15.97 9.43783
Pt 17.6955 20.6512 14.7361
Au 13.0811 10.7203 24.4067
Pt 13.8402 14.2346 10.7299
Pt 14.3939 20.5998 8.02458
Pt 22.3853 17.9299 13.4417
Pt 10.4009 6.98018 14.3154
Pt 7.88016 14.5815 17.974
Pt 15.6979 8.09997 8.41163
Au 14.9779 23.0163 8.90148
Pt 20.366 9.48634 11.1253
Pt 10.9318 19.4263 14.8161
Au 15.5117 9.16614 24.0301
Pt 17.7252 10.5825 10.3836
Pt 16.9135 20.817 9.55929
Pt 12.0636 16.713 16.5469
Pt 16.4304 23.1818 11.1606
Pt 20.8822 17.3897 15.7082
Pt 18.9983 22.3285 10.7768
Au 15.4774 24.6983 13.4407
Pt 12.9952 21.2839 14.8714
Au 15.9614 20.7549 22.4378
Pt 16.8056 18.6332 11.3463
Pt 7.95701 13.0301 20.0665
Pt 11.6035 17.9406 20.1885
Pt 14.5274 13.1327 6.17648
Pt 18.0568 16.641 12.4888
Pt 19.3672 19.8872 19.1575
Pt 18.4628 21.8143 17.5967
Pt 12.7846 23.5772 13.7446
Pt 12.4569 10.9521 6.47248
Pt 10.7701 18.7191 17.8062
Pt 14.5276 14.2881 21.7066
Pt 13.8006 17.6721 18.6176
Pt 15.3072 20.9453 15.9422
