286
Atoms. Timestep: 20357
Pt 19.1096 13.7794 14.6765
Pt 7.57438 14.4197 14.6886
Au 23.0984 17.3739 12.0374
Pt 18.94 20.2573 16.8645
Au 22.4178 10.264 9.87214
Pt 12.7606 19.0885 7.84051
Pt 10.2352 7.73958 16.8638
Au 15.6047 20.5639 23.1211
Pt 9.24195 14.0907 10.8528
Pt 18.7112 9.49605 20.3899
Au 21.5325 20.5988 16.229
Pt 19.5722 7.4671 16.5437
Pt 10.4835 20.9585 12.7216
Au 22.6568 13.1282 20.8067
Pt 12.902 9.10757 18.2969
Pt 10.1369 20.3563 15.2359
Au 19.2099 21.9493 14.5519
Pt 14.5445 14.1503 7.77236
Pt 20.5875 14.5135 9.62701
Au 19.5716 16.1795 22.7034
Pt 8.07248 20.2094 16.8513
Pt 20.9348 15.0371 16.3359
Au 14.799 22.9785 11.3762
Pt 16.539 15.0395 19.1079
Pt 11.4676 16.0469 16.7137
Au 8.56612 8.10688 19.0988
Pt 15.3028 19.087 15.2443
Pt 11.2092 17.4497 9.3611
Au 10.7468 15.4532 5.31992
Pt 13.985 10.1039 7.84864
Pt 22.1277 11.3843 18.7074
Pt 8.30692 16.3026 9.75002
Pt 16.2494 10.1563 15.5144
Au 11.4119 11.0649 6.72272
Pt 12.5152 11.5701 17.5631
Pt 17.3834 19.9903 13.4205
Au 16.6226 8.93399 22.2624
Pt 17.0366 17.443 8.322
Pt 14.3046 21.1728 16.6009
Au 7.83937 20.8712 13.9847
Pt 7.98041 13.8443 18.6432
Pt 13.5979 17.8337 16.9227
Pt 18.3441 11.5695 15.989
Au 16.4852 12.9628 23.8364
Pt 16.9766 15.7794 14.6004
Pt 19.8505 13.2757 7.48963
Pt 14.4849 12.2643 15.9534
Au 8.71928 7.94269 14.678
Pt 9.65455 13.1795 6.52119
Au 13.6576 23.9028 17.5361
Pt 17.3712 17.0745 21.0501
Pt 15.392 18.0071 22.2901
Au 13.0721 19.4385 22.9916
Pt 9.31844 12.026 14.949
Pt 18.3987 20.2318 19.6799
Pt 12.0482 13.8228 6.92381
Au 16.1588 23.6998 16.6299
Pt 10.3161 11.6882 11.4958
Pt 18.2585 13.408 9.87923
Pt 19.0297 15.5109 19.82
Au 11.3551 7.65449 9.73163
Pt 15.1185 21.2932 13.5346
Pt 10.5701 16.1549 11.7368
Au 19.015 21.613 9.50727
Pt 19.9863 19.3496 14.3434
Pt 20.3988 11.8264 9.6082
Au 15.3711 7.11632 10.7695
Pt 9.99798 15.486 7.93128
Pt 14.414 18.6274 12.8656
Pt 19.6416 12.539 12.0474
Au 21.3207 15.879 7.53082
Pt 16.3342 14.1658 16.6227
Pt 13.4064 9.75052 15.5889
Pt 7.32771 12.2258 16.6812
Au 9.74807 23.0102 14.7152
Pt 11.7605 13.2497 15.5643
Pt 10.0146 13.9692 13.4584
Au 9.63502 17.9609 20.7675
Pt 9.8478 14.0676 20.537
Pt 11.53 16.0389 20.8354
Pt 11.4375 8.19718 14.2108
Pt 12.0111 22.2934 15.955
Pt 16.4363 15.1071 9.54557
Pt 20.8534 15.32 12.0199
Au 23.1868 15.2337 10.0355
Pt 16.3695 19.674 17.7352
Pt 22.2219 12.973 11.1126
Au 20.955 8.91281 19.0162
Pt 18.6835 15.5591 7.78285
Pt 14.3605 13.3816 18.4203
Pt 11.6836 19.9084 20.6084
Pt 7.6451 16.2054 16.8216
Au 13.4901 9.19416 22.9565
Pt 22.7296 11.1487 14.8643
Pt 12.8762 13.7832 20.6474
Au 17.9662 7.87048 10.6728
Pt 15.3469 9.45685 17.8545
Pt 13.8684 13.6623 13.5402
Au 12.1365 23.1089 13.1512
Pt 9.33789 10.0462 20.897
Pt 19.7981 18.0084 20.7572
Pt 16.8905 7.08177 17.2291
Au 16.8113 23.403 13.8787
Pt 14.3193 16.6503 8.85156
Pt 17.9824 19.2093 10.4803
Pt 12.805 6.94669 11.8688
Au 23.9958 11.9548 16.985
Pt 7.32117 10.3746 14.5997
Pt 16.0792 15.7911 6.60525
Au 21.4019 8.59864 14.2035
Pt 15.8389 13.4557 5.42793
Pt 7.09946 18.5025 12.6632
Au 11.0123 24.1795 17.6975
Pt 21.157 12.513 16.5008
Pt 20.1797 11.1514 14.2844
Pt 9.85365 12.0779 17.6186
Au 17.7957 22.3241 18.2395
Pt 19.5598 18.0387 8.29736
Pt 16.3947 9.36142 8.88556
Pt 15.4616 17.4955 19.2308
Au 5.4501 11.9587 11.6753
Pt 14.2188 23.2427 14.8446
Pt 11.0903 11.8583 19.9734
Pt 12.1278 15.0195 9.37476
Au 11.3901 14.2509 22.9327
Pt 11.9227 13.7115 11.6688
Pt 10.0263 12.0695 22.3106
Pt 11.1303 20.1339 10.0844
Au 9.14376 19.1959 8.54295
Pt 8.12276 13.7123 8.47712
Au 9.20424 9.2785 10.4239
Pt 11.7582 18.5079 12.3394
Pt 18.6909 16.4956 10.3697
Pt 14.0734 13.7396 22.9543
Pt 18.5518 16.0371 16.866
Pt 15.9483 16.8148 16.8237
Pt 15.694 9.94646 11.3419
Au 17.5326 6.25881 14.8445
Pt 15.3414 19.2295 8.7867
Pt 13.7851 14.8997 16.2044
Pt 15.7398 11.9743 9.20522
Au 22.3939 18.3098 20.3908
Pt 15.2108 22.0089 18.881
Pt 16.4746 13.1847 14.2657
Pt 11.998 11.3883 13.6753
Au 19.3784 7.05446 13.0205
Pt 19.4994 11.2387 18.4245
Pt 14.0035 8.73795 13.1176
Au 24.5988 16.5416 14.3365
Pt 7.91852 11.759 10.295
Pt 13.0649 6.2258 14.3341
Pt 20.6229 19.5718 10.069
Pt 14.4382 16.6189 14.3981
Pt 10.4763 9.74239 18.5469
Pt 15.6504 15.3484 12.358
Au 14.8658 18.1462 6.33408
Pt 20.6228 19.3798 18.6465
Pt 10.8622 10.135 15.8472
Au 5.39226 14.4338 12.9167
Pt 13.008 20.9635 11.8206
Pt 14.8371 15.6228 21.206
Pt 20.8027 9.86137 16.542
Pt 16.2408 12.7259 11.6898
Au 21.5222 8.21214 11.4047
Pt 13.3881 11.4198 11.3173
Pt 23.2135 16.3784 16.5998
Au 22.0875 19.8999 12.5526
Pt 23.5045 14.6825 12.6896
Pt 8.41039 9.6797 16.7874
Au 11.4269 7.14054 19.2605
Pt 16.378 10.5649 20.0893
Pt 18.1982 14.738 12.305
Pt 13.6637 8.97065 10.1135
Au 23.7645 16.3536 19.2546
Pt 9.85273 21.9431 17.3259
Pt 9.49312 18.5404 13.5344
Pt 17.5871 11.0645 13.2899
Au 16.8554 22.0506 21.068
Pt 12.8014 20.3759 14.3849
Pt 13.4438 15.8488 18.8099
Au 6.48651 14.2252 10.4557
Pt 13.784 19.6615 18.8336
Pt 13.2774 16.3077 11.5943
Pt 19.8455 9.34573 9.5825
Pt 15.5977 13.0735 20.7888
Pt 13.3237 17.9208 20.7976
Pt 9.55523 16.0733 18.7334
Au 15.0051 20.9345 6.93723
Pt 15.12 11.1375 22.4039
Pt 11.8652 19.8573 17.056
Pt 11.6532 9.34023 11.8458
Au 7.72526 18.1746 18.6748
Pt 16.8308 21.3242 15.6722
Pt 13.3689 18.6717 10.3532
Pt 20.2205 17.9718 12.1473
Au 13.7075 14.9099 5.06274
Pt 18.2322 17.9016 18.52
Pt 12.5299 11.6379 22.276
Au 11.9968 24.7957 15.2947
Pt 13.7711 11.1961 19.9236
Pt 12.7124 7.22577 16.5676
Pt 5.82518 12.4932 14.5857
Pt 7.97235 15.879 12.4887
Pt 17.5703 17.5613 12.7227
Pt 21.0718 16.5928 18.5172
Au 17.5568 17.6097 23.8954
Pt 9.32306 18.3067 11.0392
Pt 13.6662 21.2271 9.32893
Pt 23.4119 14.0288 15.3841
Au 19.0466 7.00534 19.0662
Pt 13.0879 12.2824 8.85005
Pt 16.5434 11.8446 17.8974
Pt 14.4787 6.95962 18.4192
Au 13.0943 16.5133 23.2164
Pt 9.82709 19.903 18.8614
Au 10.4943 17.8714 6.67356
Pt 21.563 13.3436 13.7689
Pt 9.74508 18.1075 16.8084
Pt 17.9518 10.8646 10.5471
Pt 17.9056 11.5216 22.1037
Pt 11.4476 10.331 9.32459
Pt 21.9723 16.1705 14.2098
Au 14.9138 5.3643 16.1328
Pt 16.6778 7.88014 19.7208
Pt 12.0558 15.5714 13.9481
Au 7.05186 9.75625 12.0118
Pt 19.4951 9.611 12.2362
Pt 20.6858 13.6393 19.1515
Pt 14.7642 11.1492 13.5562
Pt 16.3307 21.7115 9.25245
Au 5.72103 16.6886 11.3337
Pt 19.9146 13.6738 21.779
Pt 14.2696 13.9753 10.5232
Au 5.9041 16.5652 14.4524
Pt 11.5651 17.8493 18.8055
Pt 21.9085 10.7816 12.3777
Pt 18.053 9.32338 17.6898
Pt 18.1061 12.8411 19.9635
Pt 17.8188 18.3037 15.533
Pt 11.8306 18.0166 14.9407
Au 8.30308 20.6878 11.197
Pt 18.7315 13.6433 17.515
Pt 21.5699 15.6282 20.8172
Au 15.6989 15.674 23.9264
Pt 17.2286 13.4152 7.46948
Pt 9.51758 9.99696 13.2455
Pt 16.8109 8.41619 13.1376
Pt 22.6192 18.5377 14.8555
Pt 7.82282 12.5495 12.7566
Pt 18.3763 11.065 7.99019
Au 6.89032 18.6457 9.93574
Pt 15.3061 6.30821 13.267
Pt 15.5894 20.2058 11.2014
Au 7.80252 12.4605 21.0399
Pt 15.866 17.4865 10.8142
Pt 9.43971 14.3244 16.4907
Pt 10.5539 12.837 9.02698
Pt 12.2491 21.8615 18.7559
Pt 22.9013 14.1397 18.0967
Pt 13.7909 12.1233 6.13
Au 4.95012 10.2497 13.6236
Pt 12.6923 16.4361 6.97681
Pt 11.8534 9.36964 20.85
Au 14.9138 18.2786 24.735
Pt 13.9194 21.1888 21.0428
Pt 16.1032 11.1384 6.74779
Pt 11.4765 14.0516 18.3859
Pt 17.4004 14.6176 21.9794
Pt 18.6189 9.02193 14.8835
Pt 17.6794 19.9295 7.89014
Au 5.75438 14.3681 16.657
Pt 15.1733 7.8346 15.4267
Au 8.94563 10.929 7.98856
Pt 14.3993 8.68214 20.551
Pt 17.8574 19.4684 22.0865
Pt 7.94935 10.9707 18.9712
Pt 7.58944 18.3489 15.2771
Pt 20.5195 17.8634 16.3766
Pt 9.51436 16.3207 14.7397
Pt 19.5685 20.7168 12.1125
Pt 20.475 11.3672 20.8287
Pt 22.8142 18.5906 17.6652
Pt 15.9199 19.709 20.3912
Pt 19.4897 16.4745 14.2423
Pt 17.3753 22.0128 11.6927
Pt 21.3365 17.0819 9.94399
