286
Atoms. Timestep: 20248
Pt 6.68277 11.6216 19.53
Pt 10.1125 8.61639 19.1887
Au 8.33015 7.67101 17.1111
Pt 6.69254 10.1977 17.21
Au 7.4926 9.02354 19.399
Pt 8.06467 12.0149 15.8356
Pt 7.78438 9.42979 14.8582
Au 6.36347 9.76857 12.4461
Pt 9.32197 10.0771 17.2215
Pt 9.11688 10.8972 20.3907
Au 8.16961 13.2212 21.3839
Pt 6.45442 13.8144 14.6902
Pt 5.80277 11.2258 14.8357
Au 5.29093 12.5522 12.5053
Pt 5.96032 12.7375 17.2118
Pt 7.02795 14.3213 19.1111
Au 5.46037 15.3498 16.9046
Pt 8.67966 16.2023 12.9231
Pt 5.8397 15.5257 12.907
Au 5.7619 14.1854 10.1443
Pt 9.28081 13.7636 14.1756
Pt 7.18519 16.4835 15.1514
Au 6.47997 18.9713 15.7297
Pt 7.05528 16.391 10.7435
Pt 7.71048 18.2927 9.1501
Au 6.53194 20.0322 10.8763
Pt 8.57367 18.5531 11.6295
Pt 7.3585 20.5052 13.4039
Au 8.22329 22.2744 11.4228
Pt 6.44697 18.0454 12.9991
Pt 9.09822 20.3875 9.72757
Pt 10.0772 8.26287 15.0843
Pt 13.8395 7.54423 17.1423
Au 10.8506 7.09614 12.7428
Pt 11.1851 7.2921 17.2723
Pt 12.7928 8.8513 19.1372
Au 13.9267 8.73322 21.6562
Pt 9.50488 9.44857 12.6141
Pt 12.0229 9.67282 13.5172
Au 8.14638 9.45162 10.3394
Pt 10.1863 10.9809 14.8436
Pt 8.67966 12.4013 18.297
Pt 11.8553 9.65375 16.6207
Au 10.5589 13.3118 16.5272
Pt 11.2096 11.1255 18.8214
Pt 10.9811 12.1838 21.7951
Pt 13.3797 11.2576 20.5277
Au 13.0899 11.021 23.1624
Pt 11.4056 9.70617 21.2101
Au 12.5387 13.6984 23.688
Pt 7.11002 11.8743 10.5464
Pt 9.0777 11.5316 8.74798
Au 7.1251 13.292 7.90091
Pt 7.975 11.6007 13.212
Pt 9.88986 16.0519 15.3081
Pt 11.561 12.4834 13.2512
Au 13.3074 13.7365 11.6373
Pt 8.09753 14.5475 16.7165
Pt 10.1227 15.7773 17.974
Pt 10.2755 13.7227 19.7272
Au 12.5606 15.3181 16.3181
Pt 8.75412 15.756 20.4084
Pt 10.4629 14.7804 22.2013
Au 10.2296 17.6109 22.0459
Pt 9.66508 16.6097 10.3717
Pt 8.33484 15.9151 8.15296
Au 12.368 16.817 6.47141
Pt 7.63585 13.921 12.1256
Pt 10.3254 14.3739 11.7906
Pt 8.72358 14.0294 9.79102
Au 15.1698 18.1366 9.42137
Pt 11.8543 15.2316 13.7286
Pt 8.85633 18.5221 14.296
Pt 9.34767 18.1809 16.761
Au 13.743 18.1509 11.8705
Pt 7.47362 16.8094 18.0054
Pt 9.32308 18.0525 19.4564
Au 7.53955 19.6425 18.1893
Pt 10.0825 18.1327 8.10751
Pt 11.5005 20.3307 8.41863
Pt 13.6382 19.2531 7.3283
Pt 11.0682 18.9532 10.6833
Pt 9.80192 20.5875 12.5499
Pt 13.5374 20.2287 10.1132
Au 13.3067 22.4881 8.87918
Pt 11.0674 17.8076 13.0404
Pt 8.59596 20.6919 15.8531
Au 8.85896 22.6839 14.1656
Pt 11.192 21.8077 10.6145
Pt 12.4028 20.3547 12.6186
Pt 12.5398 7.37472 14.8299
Pt 12.4423 8.50537 11.1801
Au 13.6026 6.31826 12.5358
Pt 14.1008 9.49852 15.3354
Pt 15.1759 7.70652 19.3853
Au 16.3682 6.3961 17.294
Pt 12.4225 11.1592 11.0436
Pt 11.5384 11.3688 7.78752
Au 13.9301 11.4917 6.5113
Pt 10.7275 9.75271 9.74521
Pt 9.77359 11.7606 11.3078
Pt 15.6449 11.5426 15.262
Au 15.6963 13.3785 10.315
Pt 16.0242 9.19782 17.2304
Pt 13.9531 10.8885 17.8095
Pt 17.8472 8.21496 19.2582
Au 12.7766 12.0488 15.599
Pt 15.7897 10.197 19.7147
Pt 15.7263 10.7475 22.1887
Au 16.5835 8.16141 21.6423
Pt 10.9716 15.6201 8.36861
Pt 12.4707 13.8578 7.04984
Au 16.1294 19.0697 6.39512
Pt 9.79953 13.5696 7.32593
Pt 11.3088 13.2821 9.59978
Pt 13.6635 12.4045 9.0024
Au 13.6499 15.2296 9.05042
Pt 14.1118 11.4429 13.1556
Pt 14.656 13.5208 16.9035
Pt 16.4986 12.0007 17.8556
Au 15.1355 15.8336 11.6522
Pt 12.47 13.3166 18.376
Pt 11.5289 16.238 20.1531
Pt 14.849 13.1278 19.6089
Au 16.6426 14.9487 18.7106
Pt 12.731 13.9643 20.9782
Pt 12.7654 16.1913 22.5158
Pt 17.1205 12.5538 20.5829
Au 13.7712 15.7302 18.6854
Pt 14.8664 13.1034 22.3653
Au 14.8647 15.3489 23.9198
Pt 14.9751 16.7603 7.12037
Pt 15.4585 20.7475 8.35576
Pt 17.5972 17.7984 8.14361
Pt 12.5494 17.7174 9.0099
Pt 16.9584 19.8336 10.3248
Pt 16.3258 15.7183 9.14312
Au 18.1041 20.4101 7.93854
Pt 12.1307 16.1281 11.1052
Pt 11.841 17.8521 15.6014
Pt 14.2402 14.0267 14.3
Au 14.1055 16.7763 14.2336
Pt 11.7431 18.0408 18.3033
Pt 10.1978 20.3753 17.889
Pt 13.3733 19.9309 19.1705
Au 14.1935 18.0159 17.085
Pt 10.8818 19.8475 20.2958
Pt 12.7707 18.4168 21.2765
Au 12.594 21.355 21.524
Pt 15.6853 22.2698 10.4056
Pt 13.4277 22.6973 11.7097
Pt 17.5691 21.5378 12.2765
Pt 15.0006 20.6667 12.2811
Pt 11.0446 22.3737 16.1169
Pt 13.9354 19.4156 14.5863
Au 15.6772 23.3675 13.1145
Pt 10.9522 20.1818 14.8086
Pt 12.5519 20.369 16.7808
Au 11.6966 22.2839 18.9456
Pt 11.3221 22.6217 13.3615
Pt 13.6173 22.0689 14.5775
Pt 14.8315 7.86651 10.4656
Pt 19.2136 8.79708 14.2941
Au 17.3058 6.88422 10.0334
Pt 15.1558 6.95297 14.8984
Pt 18.3512 8.02316 16.6849
Au 17.9354 6.34636 14.6277
Pt 16.0665 11.5681 8.12963
Pt 16.3638 9.25796 8.98109
Au 17.4197 12.8688 6.02727
Pt 13.5083 9.77383 8.90334
Pt 15.1141 10.7429 10.8112
Pt 17.0628 9.23444 11.7547
Au 17.8794 11.5637 10.5646
Pt 14.5149 8.84274 12.8341
Pt 17.9941 10.6177 16.0442
Pt 20.5807 9.71965 19.7165
Au 16.3296 13.1016 12.9084
Pt 16.6475 9.00785 14.4318
Pt 18.4638 10.6078 18.5984
Au 22.8212 9.86744 18.194
Pt 15.2243 13.9811 7.22893
Pt 17.5599 15.5924 6.76617
Pt 19.7047 14.1568 7.07272
Pt 17.665 13.6137 8.56649
Pt 19.2267 15.8394 9.27921
Pt 19.9427 16.793 11.8042
Au 20.1889 16.9509 7.18221
Pt 18.1159 14.5282 11.2621
Pt 16.6384 15.6944 13.8164
Pt 17.2057 13.5728 15.6542
Au 19.0422 14.303 13.7025
Pt 18.7428 13.4443 18.0791
Pt 18.8344 14.6004 20.5469
Pt 20.8372 11.8655 18.037
Au 18.5515 15.8136 16.265
Pt 18.1919 10.1857 21.2087
Pt 17.0333 14.8212 22.4835
Au 18.6056 12.6977 22.8574
Pt 19.5972 18.6097 9.52992
Pt 16.3869 18.5577 12.8774
Pt 18.9559 19.2071 11.9961
Pt 17.4959 17.2026 10.9575
Pt 16.4447 18.3721 15.4619
Pt 18.6149 17.2954 14.0248
Au 19.3904 21.2906 10.2551
Pt 15.6278 15.825 16.2848
Pt 14.9534 17.869 19.8303
Pt 21.1103 14.1284 19.3411
Au 16.9358 17.6083 17.9308
Pt 14.9682 15.453 21.0586
Pt 14.8731 20.0556 21.5188
Pt 19.5232 15.6652 22.6829
Au 17.3662 16.8937 20.6918
Pt 15.2635 17.6282 22.4719
Au 17.7386 17.4708 23.3804
Pt 16.1671 21.0057 14.5491
Pt 16.0896 23.095 15.8941
Pt 18.4462 19.9787 14.4355
Pt 15.0906 20.6443 16.9237
Pt 16.4023 22.6783 18.3548
Pt 16.2096 20.1234 19.2216
Au 18.415 22.8845 14.4441
Pt 14.3002 22.2097 19.6533
Pt 17.4847 19.5058 21.464
Au 16.4867 22.1443 21.1953
Pt 13.6749 22.8298 17.1322
Pt 17.6818 20.4988 16.98
Pt 18.8134 9.02375 9.60168
Pt 18.9895 7.34667 12.1122
Au 21.2188 8.12174 10.5099
Pt 16.3383 6.85006 12.5372
Pt 22.5298 8.99607 15.5373
Au 20.7217 7.00198 15.5441
Pt 18.8013 11.3501 7.96506
Pt 19.95 13.2686 9.69179
Pt 20.7538 10.7353 9.63603
Pt 19.6992 9.86594 11.9091
Pt 20.3771 12.3882 12.0896
Pt 22.4758 11.5982 16.1064
Au 21.4512 12.2492 7.53918
Pt 18.0908 11.2873 13.4841
Pt 20.4003 9.71597 16.7053
Au 20.5035 7.55717 18.2747
Pt 21.7296 14.8402 8.62859
Pt 21.3943 14.7357 11.6136
Pt 22.4928 12.7173 10.027
Pt 21.7033 13.4293 14.2221
Pt 21.0911 15.9826 14.2169
Pt 23.2338 13.3192 17.8555
Au 23.7446 15.2389 10.5996
Pt 19.6949 12.4328 15.6252
Pt 22.395 11.8808 20.0969
Au 23.5116 14.336 20.4701
Pt 21.6733 17.0546 9.82985
Pt 20.8098 18.6895 14.0058
Pt 23.6092 15.2436 13.3816
Pt 21.2736 16.9879 16.6071
Pt 19.5772 16.3616 18.7191
Pt 20.9814 14.3994 16.7144
Au 21.5904 19.5947 11.2554
Pt 19.7943 12.1034 20.5284
Pt 21.4219 16.1495 20.8471
Au 21.2937 13.6751 22.1151
Pt 19.3401 18.5795 16.5226
Pt 20.2797 21.2619 12.9666
Pt 22.5516 17.3434 12.2815
Pt 18.7545 18.9893 19.166
Pt 18.459 21.6122 19.5591
Pt 21.3512 18.3198 19.0125
Au 22.7247 20.3775 13.9574
Pt 19.7017 17.9285 21.3683
Au 20.4824 20.3656 20.7746
Pt 18.7464 22.7323 17.0801
Pt 20.4073 20.7271 18.074
Pt 21.5527 8.31573 13.174
Pt 22.3518 10.4468 11.6803
Pt 20.9697 10.7487 14.0903
Pt 23.5817 10.7366 13.9085
Pt 23.4076 12.84 12.3598
Pt 24.1743 13.1343 14.9711
Pt 23.3327 15.3319 16.004
Pt 23.1692 17.6762 14.8012
Pt 22.7147 16.0163 18.4873
Pt 22.0324 19.4107 16.4681
Pt 20.3886 21.2155 15.5638
