286
Atoms. Timestep: 20188
Pt 8.08911 11.4355 19.4498
Pt 11.1986 8.11177 18.5479
Au 8.97102 7.90041 16.85
Pt 7.25965 10.1313 17.4481
Au 8.68744 8.81042 19.4109
Pt 8.43557 12.1625 16.2935
Pt 7.73803 9.47021 15.0192
Au 6.04892 9.93631 12.9162
Pt 9.98499 10.4781 17.5167
Pt 10.6936 10.448 20.0737
Au 9.25376 12.222 21.7797
Pt 6.48052 13.787 14.9073
Pt 5.95148 11.3643 15.4654
Au 5.28477 12.605 12.7435
Pt 6.49621 12.9939 17.8166
Pt 7.81915 13.9792 20.0989
Au 5.48038 15.5441 16.6529
Pt 9.153 16.242 12.9002
Pt 5.72475 15.3672 12.8473
Au 5.89962 14.0264 10.2609
Pt 9.24512 13.9924 14.3779
Pt 7.32895 16.2774 14.7714
Au 6.40216 19.0426 15.2723
Pt 7.28491 16.3107 10.8148
Pt 8.31645 18.0473 8.89992
Au 6.75141 19.5418 10.4957
Pt 8.93521 18.3978 11.4976
Pt 7.32877 20.2632 13.0038
Au 8.16968 22.159 11.4076
Pt 6.63547 17.8335 12.7927
Pt 9.40404 20.378 9.85635
Pt 9.85443 8.03025 14.2398
Pt 13.1644 7.06652 16.69
Au 10.8998 7.22515 11.8819
Pt 11.4309 8.90657 16.0163
Pt 13.9886 7.17788 19.0831
Au 14.8429 7.47822 21.6613
Pt 8.73938 9.47279 12.4671
Pt 11.7876 9.73368 13.1142
Au 8.24686 9.44485 9.87959
Pt 10.0216 10.8019 14.7437
Pt 9.70936 13.161 18.602
Pt 12.6418 11.3766 15.7381
Au 11.0486 13.5624 16.2121
Pt 12.0803 12.0234 18.2159
Pt 11.568 12.8422 20.7194
Pt 13.4143 11.0808 20.2731
Au 11.9851 10.8198 22.5937
Pt 12.6445 8.72078 20.7419
Au 11.4731 13.6494 23.2628
Pt 7.24041 11.6592 10.955
Pt 9.63623 11.4766 8.94978
Au 7.18084 12.5423 8.28377
Pt 7.807 11.7787 13.649
Pt 9.94187 16.342 15.8667
Pt 11.5966 12.5303 13.5909
Au 13.1392 13.8233 11.8709
Pt 8.16884 14.6911 16.8632
Pt 9.45598 15.9324 18.7188
Pt 11.7551 14.8052 18.8158
Au 12.7314 15.6874 16.4221
Pt 6.84941 15.933 18.8632
Pt 10.0479 14.8555 21.1759
Au 8.20539 16.713 21.0661
Pt 9.89896 16.3787 10.1384
Pt 7.6614 15.4228 8.45249
Au 11.804 17.5496 5.93314
Pt 7.74671 14.0061 12.2845
Pt 10.5121 14.3051 11.8153
Pt 8.82741 13.7482 9.97395
Au 15.0292 17.3703 9.2883
Pt 11.6922 15.4935 13.8814
Pt 8.99013 18.4542 14.3384
Pt 9.83941 19.0834 16.7377
Au 14.175 18.1569 11.9218
Pt 7.71115 17.4972 17.023
Pt 8.90863 18.4351 19.1734
Au 7.52333 20.1881 17.5841
Pt 10.6245 18.9322 7.95402
Pt 11.8662 21.0477 9.13033
Pt 13.3443 19.0747 7.64335
Pt 11.508 18.7445 10.4047
Pt 9.90218 20.4763 12.5986
Pt 14.0417 19.9303 10.0288
Au 14.1907 21.9184 8.16608
Pt 11.3088 18.0585 12.9182
Pt 8.63063 20.9382 15.128
Au 9.74091 22.9715 13.7274
Pt 10.8779 22.3678 11.1582
Pt 12.4702 20.4476 12.2283
Pt 12.3875 7.18087 14.0979
Pt 12.7955 7.96127 10.1299
Au 13.701 6.0925 11.9352
Pt 13.8945 9.20756 15.104
Pt 16.6986 7.30002 19.4527
Au 15.7711 5.97607 17.2083
Pt 11.836 12.104 10.3152
Pt 11.6907 12.444 7.44019
Au 13.3681 10.8836 6.12561
Pt 10.8057 9.62049 10.7034
Pt 9.73332 11.7827 11.8421
Pt 15.3472 11.3719 15.3567
Au 15.3031 12.7612 10.8738
Pt 15.4474 8.67673 17.165
Pt 13.1729 9.64993 17.9612
Pt 17.7148 9.75644 19.221
Au 13.9814 13.9152 14.5044
Pt 15.2316 9.37062 19.8264
Pt 14.8698 10.2582 22.3039
Au 17.2271 8.80053 21.7335
Pt 9.88765 16.384 7.45708
Pt 11.9728 14.8754 6.70081
Au 16.0443 17.962 6.33491
Pt 9.46351 13.7743 7.41408
Pt 11.3657 14.4115 9.22397
Pt 13.9618 11.9482 8.5994
Au 14.0991 14.7023 9.06848
Pt 16.4151 9.84062 12.1068
Pt 15.5127 15.7418 16.474
Pt 15.3972 11.3879 18.0587
Au 15.2112 15.5665 11.8343
Pt 14.1197 13.4144 17.0651
Pt 11.0631 17.3225 20.6028
Pt 15.9982 11.9295 20.5408
Au 16.4317 14.4783 18.7077
Pt 14.0437 13.5132 19.6537
Pt 12.7162 15.1937 21.3609
Pt 16.3683 12.6829 23.0021
Au 14.0422 16.1412 18.9617
Pt 13.893 12.8542 22.3206
Au 14.3091 15.2172 23.6982
Pt 14.0448 16.3872 6.8492
Pt 15.8292 19.788 8.15062
Pt 17.641 17.6067 8.50286
Pt 12.2377 16.8874 8.6384
Pt 16.83 19.4602 10.6136
Pt 16.8712 15.2375 9.71527
Au 18.2917 20.4392 8.37324
Pt 12.4297 16.2786 11.1881
Pt 11.8689 18.1186 15.4113
Pt 14.0693 11.3036 13.0847
Au 14.1877 16.7823 14.2685
Pt 11.4997 17.5483 18.0554
Pt 9.85138 21.5859 17.2883
Pt 13.3098 18.7836 19.5431
Au 14.1268 18.1099 17.0202
Pt 10.9158 20.0495 19.2691
Pt 13.3888 17.4698 22.0771
Au 11.989 19.8032 21.6876
Pt 16.1736 21.8183 10.064
Pt 13.5944 22.4813 10.8285
Pt 17.504 21.6299 12.5078
Pt 15.0172 20.8717 12.359
Pt 11.5134 22.9528 15.9244
Pt 13.9291 19.48 14.4757
Au 15.2897 23.3753 13.2208
Pt 11.3126 20.6582 14.7264
Pt 12.3546 20.4368 17.1473
Au 11.4898 22.7088 18.9365
Pt 12.3916 22.9023 13.2145
Pt 13.7739 22.0136 15.071
Pt 15.4598 8.01763 10.2224
Pt 19.184 8.79892 14.9747
Au 17.776 6.61684 10.3245
Pt 14.9593 6.77087 14.7551
Pt 17.8719 7.80112 17.1287
Au 17.7095 6.3344 14.8948
Pt 15.9126 11.0795 6.86134
Pt 14.3076 9.18029 8.09154
Au 17.6642 13.0606 6.11533
Pt 11.9157 10.023 8.40712
Pt 13.6674 10.2941 10.6822
Pt 16.0563 10.5351 9.49883
Au 16.9235 8.58775 7.78175
Pt 14.1258 8.57283 12.5824
Pt 17.4656 10.3823 16.6133
Pt 20.2628 10.3588 20.0593
Au 16.3284 13.2005 13.3326
Pt 16.5567 8.86002 14.538
Pt 18.0765 12.21 18.7378
Au 22.5212 10.0981 18.4637
Pt 14.4767 13.5146 6.6256
Pt 16.3634 15.3892 7.13987
Pt 18.8608 14.9657 7.6176
Pt 16.6002 13.0545 8.51136
Pt 19.3886 16.0918 9.95496
Pt 20.082 17.1338 12.2321
Au 20.3268 17.308 7.74111
Pt 17.7859 11.8868 11.0472
Pt 18.3241 14.6405 11.9356
Pt 16.8757 13.2997 16.2419
Au 18.9159 14.0963 14.3975
Pt 19.1822 14.5739 18.9608
Pt 17.7959 13.8411 21.0527
Pt 20.7245 12.3328 18.4387
Au 18.372 15.6974 16.6141
Pt 18.2689 11.2363 21.575
Pt 17.205 15.1656 23.2537
Au 19.1071 13.2441 23.3633
Pt 19.6056 18.7527 9.95797
Pt 16.4319 18.7104 13.3147
Pt 18.8719 19.3668 12.3611
Pt 17.4522 17.1457 11.4918
Pt 16.5073 18.442 15.875
Pt 18.6632 17.332 14.46
Au 19.3564 21.4243 10.6314
Pt 16.7139 15.7795 14.0952
Pt 15.5232 17.6661 20.4664
Pt 21.7272 14.8052 19.0358
Au 16.9461 17.3695 18.2593
Pt 15.4298 15.0586 21.3058
Pt 14.6814 19.7219 21.8382
Pt 20.0067 15.4269 21.712
Au 17.8469 16.6132 20.8741
Pt 15.91 17.4175 22.9685
Au 18.5329 17.4356 23.499
Pt 16.1649 21.0693 14.7471
Pt 16.0299 23.1207 16.2021
Pt 18.4596 20.0725 14.8046
Pt 14.9342 20.6219 17.1238
Pt 15.9543 22.594 18.7434
Pt 16.0006 19.9645 19.4189
Au 18.3498 22.9352 14.748
Pt 13.6514 21.3217 19.693
Pt 17.4161 19.4084 21.7426
Au 15.8885 21.9642 21.3799
Pt 13.6641 22.9484 17.5085
Pt 17.5397 20.6115 17.2804
Pt 18.1613 9.13108 10.0803
Pt 18.7414 7.59842 12.656
Au 20.6497 8.22157 10.6905
Pt 16.2656 7.02803 12.5217
Pt 21.8554 9.10283 15.8097
Au 20.3905 7.11998 16.7497
Pt 18.2903 11.1403 8.10222
Pt 19.2696 13.4452 9.67788
Pt 20.2071 10.8755 9.79677
Pt 19.2752 10.0061 12.2193
Pt 20.1276 12.5434 12.1577
Pt 22.0285 11.6143 16.2922
Au 20.4487 12.6811 7.47656
Pt 17.8782 11.233 14.0605
Pt 19.9382 9.82823 17.4694
Au 19.5162 7.78472 19.3589
Pt 21.4177 14.957 8.82774
Pt 21.229 14.8586 11.7409
Pt 21.9461 12.8012 10.1005
Pt 21.5652 13.3451 14.2055
Pt 21.0808 15.9103 14.3068
Pt 23.3974 13.0736 17.8407
Au 23.6283 15.1975 10.8317
Pt 19.3183 12.1773 16.2276
Pt 22.6296 12.2731 20.1341
Au 24.2225 15.1529 19.4323
Pt 21.8212 17.1832 10.1819
Pt 20.8168 18.7519 14.3908
Pt 23.5367 15.1986 13.7058
Pt 20.9803 16.8427 16.6534
Pt 20.008 16.9791 19.0405
Pt 20.9124 14.2341 16.5722
Au 21.6127 19.6769 11.6957
Pt 20.2931 12.9146 20.9614
Pt 22.1782 16.7774 20.654
Au 22.5417 14.3747 21.6866
Pt 19.2622 18.6859 16.9119
Pt 20.2603 21.3556 13.3374
Pt 22.6979 17.4205 12.6683
Pt 18.6108 19.1455 19.4652
Pt 18.0622 21.6978 19.8919
Pt 21.4911 19.1013 19.4836
Au 22.7044 20.4323 14.4194
Pt 20.031 18.1236 21.5017
Au 20.0983 20.7367 21.2176
Pt 18.446 22.8841 17.4401
Pt 20.1471 21.0128 18.414
Pt 21.2887 8.55456 13.3202
Pt 21.949 10.5758 11.7554
Pt 20.5401 10.9371 14.2554
Pt 23.1294 10.7817 14.0459
Pt 23.2389 12.893 12.3519
Pt 23.9135 13.0743 15.1769
Pt 23.312 15.3061 16.4927
Pt 23.1064 17.6292 15.2842
Pt 22.9465 17.2904 18.2096
Pt 21.8743 19.4346 16.8774
Pt 20.3386 21.3615 15.9299
