286
Atoms. Timestep: 20360
Pt 12.3563 11.6317 9.12579
Pt 12.508 7.51438 11.5775
Au 21.3617 20.2883 19.0927
Pt 7.67616 10.4223 11.2066
Au 18.8361 8.03251 21.0253
Pt 14.8201 21.5511 20.4369
Pt 10.3304 12.7971 19.5589
Au 20.6317 20.394 9.61767
Pt 7.63299 14.7302 16.7212
Pt 17.8028 14.9889 9.90426
Au 16.7726 21.0937 22.2283
Pt 20.9714 8.59966 15.9055
Pt 11.7826 15.6907 22.679
Au 7.87048 14.9345 8.52264
Pt 9.72153 10.6761 15.2059
Pt 11.1526 18.0013 21.5508
Au 11.4617 17.59 6.42884
Pt 9.89575 10.5697 9.77315
Pt 15.5048 18.7019 16.0677
Au 18.6607 12.4135 22.8888
Pt 19.0463 21.8072 18.4155
Pt 15.5282 15.649 8.56772
Au 7.10963 21.2202 13.3893
Pt 17.6614 6.66886 16.0426
Pt 7.33808 14.8966 11.4952
Au 13.4656 11.0334 6.40397
Pt 16.226 8.7657 14.9933
Pt 14.7749 13.428 20.0184
Au 24.3808 15.2908 13.0455
Pt 14.8744 10.6503 8.59081
Pt 12.157 10.2336 11.5595
Pt 6.75484 12.4317 17.8954
Pt 8.69116 8.28421 14.855
Au 22.046 11.1807 19.7221
Pt 10.4635 7.36343 13.2237
Pt 14.4401 9.09896 10.7251
Au 6.51263 16.911 18.5343
Pt 12.5182 11.4593 19.5167
Pt 6.27278 12.571 12.8129
Au 18.3048 22.3885 10.5911
Pt 7.56668 14.5389 14.0785
Pt 12.7259 9.22725 20.8288
Pt 16.8398 17.7691 13.7681
Au 18.9325 12.9927 13.8076
Pt 21.1263 13.3962 18.1375
Pt 11.8314 9.39536 14.2597
Pt 10.1616 8.26473 10.7463
Au 10.7866 22.9666 18.7884
Pt 21.0493 15.4859 16.3639
Au 23.496 17.334 16.1326
Pt 16.9163 16.6923 22.5311
Pt 9.15489 19.2476 14.0663
Au 14.2184 6.65205 9.63166
Pt 5.4071 13.6823 15.4536
Pt 11.2475 17.0535 9.27098
Pt 17.3608 6.39031 13.4655
Au 17.1769 11.4043 15.616
Pt 8.8402 12.3781 12.8778
Pt 14.0835 22.5411 14.037
Pt 11.3597 20.4633 15.3042
Au 16.6218 14.0585 14.5842
Pt 12.662 14.3305 11.8355
Pt 9.13986 16.6362 17.9455
Au 13.8199 20.2414 22.6164
Pt 15.6321 17.1004 6.48147
Pt 13.4127 19.5057 14.2273
Au 17.1664 6.36042 10.6814
Pt 9.68484 13.8438 21.8323
Pt 13.4795 11.6437 22.0372
Pt 14.9362 14.4612 6.18037
Au 7.94205 7.93176 12.2547
Pt 12.9198 18.6171 16.7415
Pt 21.023 11.8239 12.6929
Pt 5.80773 16.2847 15.4716
Au 16.0154 11.0026 13.194
Pt 22.6643 13.9249 11.481
Pt 12.52 16.7941 12.5413
Au 15.1145 16.2374 24.4238
Pt 11.9121 22.7522 16.1642
Pt 15.1904 14.2776 10.74
Pt 21.7019 10.8006 17.1877
Pt 15.8761 22.3073 18.0307
Pt 16.8822 12.7876 8.95454
Pt 21.1176 9.03253 13.2885
Au 23.6026 12.7571 17.2248
Pt 14.9396 6.61147 12.2994
Pt 20.8649 20.4303 14.2519
Au 5.55231 18.7921 16.7376
Pt 15.8604 9.84384 17.4262
Pt 17.2287 20.5435 16.8221
Pt 15.2875 18.9738 9.89793
Pt 14.6593 18.2685 12.3639
Au 12.0908 21.631 20.7864
Pt 6.29659 18.6941 14.0544
Pt 17.2434 17.5897 8.461
Au 15.9765 18.8615 23.6693
Pt 21.5717 18.8123 11.8494
Pt 12.8207 6.70582 14.1356
Au 20.2801 10.5709 8.10285
Pt 21.4032 17.7292 18.0621
Pt 18.2391 20.3678 14.3022
Pt 13.0527 19.1815 20.2503
Au 14.3691 13.1717 13.4601
Pt 19.7383 10.5371 20.8749
Pt 13.7328 8.5637 15.938
Pt 11.0337 7.53376 15.9588
Au 12.2614 14.7307 14.5951
Pt 7.95652 19.2304 18.2324
Pt 16.5515 17.0174 10.9761
Au 20.0868 14.7302 6.25367
Pt 18.772 14.1333 19.1642
Pt 19.3492 7.57206 12.0093
Au 7.98699 12.0894 20.5178
Pt 7.8352 17.6935 15.9526
Pt 7.6021 20.359 15.857
Pt 9.79823 9.95741 12.6632
Au 5.25347 14.6393 17.9257
Pt 19.0652 18.8611 18.8358
Pt 15.9093 12.2465 22.3893
Pt 20.3723 13.0691 20.8164
Au 11.325 19.8123 8.01038
Pt 11.3776 17.806 18.8736
Pt 18.9618 16.3505 17.674
Pt 18.6697 8.59062 14.3275
Au 7.49469 9.96864 19.0215
Pt 17.2219 12.9824 11.7525
Pt 20.8893 17.9831 15.4544
Pt 7.97861 16.8844 13.2714
Au 18.7151 13.6814 16.5219
Pt 12.9376 16.2285 20.3141
Au 19.3865 15.1776 22.2742
Pt 9.85648 19.346 10.1149
Pt 16.2721 8.29757 9.0945
Pt 19.5227 18.7341 7.84382
Pt 19.9076 13.8172 11.206
Pt 7.82322 19.1468 11.7911
Pt 19.4141 18.0925 13.2429
Au 10.8712 10.6131 7.20924
Pt 18.1222 15.5446 12.4474
Pt 17.7157 9.72474 19.2525
Pt 9.43538 21.9696 14.6516
Au 11.7744 12.0744 13.6084
Pt 14.318 13.2303 8.41243
Pt 21.1402 14.553 13.5575
Pt 12.1629 14.3818 9.37244
Au 22.9237 13.7604 20.0466
Pt 11.3339 17.7495 14.6069
Pt 23.0618 16.5369 11.119
Au 11.285 7.6515 18.783
Pt 10.3927 15.3227 7.51889
Pt 10.1256 20.0001 19.69
Pt 14.2706 16.6997 17.9943
Pt 16.4676 16.2502 16.0803
Pt 19.7865 10.8268 15.1954
Pt 16.6054 22.5968 15.2285
Au 9.1789 16.3329 22.4094
Pt 13.6346 18.2479 7.96592
Pt 15.2069 15.712 12.9212
Au 20.6756 18.1017 20.8426
Pt 9.64991 15.9936 15.3002
Pt 16.6729 17.888 18.4422
Pt 8.13754 12.766 10.3235
Pt 9.84925 13.3753 15.1269
Au 18.7824 22.8573 13.2661
Pt 19.5297 16.1875 8.59441
Pt 19.6512 13.4454 8.51652
Au 20.0635 6.3916 14.4591
Pt 10.0751 14.8944 12.8521
Pt 20.903 9.80344 10.8385
Au 9.10134 17.7378 7.82062
Pt 16.6106 10.615 10.5614
Pt 11.6757 10.0213 17.0774
Pt 21.3455 12.895 15.5438
Au 17.7477 23.927 17.3501
Pt 20.5191 16.2778 11.4575
Pt 14.1859 11.8898 17.7152
Pt 18.2573 18.2797 16.0251
Au 14.444 14.2595 16.3609
Pt 16.7642 8.5512 12.1682
Pt 17.2551 10.0121 21.9044
Au 22.6127 19.9039 16.5681
Pt 15.442 16.3426 20.4
Pt 22.9705 15.4017 17.999
Pt 11.7484 22.1413 13.1956
Pt 10.1149 18.7813 16.7911
Pt 11.6684 21.3921 10.5911
Pt 15.9902 12.1579 6.61604
Au 17.8657 6.94504 18.8027
Pt 10.2427 10.1164 19.5359
Pt 12.0164 20.6014 18.08
Pt 13.4053 22.7056 18.5126
Au 18.9612 15.8872 14.8368
Pt 9.4482 21.218 12.0911
Pt 18.409 9.07126 16.8568
Pt 18.13 18.8034 21.5748
Au 10.7983 11.3112 21.8844
Pt 18.6385 8.8903 9.9472
Pt 9.31616 8.90299 17.3631
Au 19.4136 21.0065 20.9394
Pt 17.7061 12.084 20.4005
Pt 13.7584 16.5052 10.2157
Pt 21.6114 12.1887 9.90344
Pt 17.5642 10.3893 8.00324
Pt 14.0267 20.7289 11.8353
Pt 15.8059 21.624 9.97953
Au 13.6777 6.70343 19.7156
Pt 10.1408 14.2837 17.5437
Pt 12.6915 14.2021 18.5472
Pt 12.2498 8.99997 9.17159
Au 14.0308 11.1046 15.204
Pt 9.95224 12.922 8.46105
Pt 10.1258 17.401 11.8645
Pt 8.0336 14.5595 19.3626
Au 5.11176 11.1173 14.9979
Pt 14.2257 11.8666 11.0178
Au 20.0429 6.6376 17.2722
Pt 20.8586 15.6469 19.6954
Pt 13.6456 9.07713 18.5004
Pt 18.9985 11.5838 10.1813
Pt 19.2299 22.3203 15.8067
Pt 18.2967 16.5869 20.2143
Pt 18.9867 18.1894 10.5546
Au 23.2398 10.7881 11.8874
Pt 10.4631 15.5576 20.0509
Pt 12.2592 13.6967 21.1547
Au 5.83498 17.2824 11.6869
Pt 22.5199 10.6082 14.7345
Pt 16.887 14.3389 23.6328
Pt 14.1902 8.92559 13.2895
Pt 11.905 12.5392 16.5346
Au 18.4621 17.0181 6.06252
Pt 20.0004 20.0786 16.7182
Pt 15.7851 8.26493 20.148
Au 14.7904 9.35076 22.4794
Pt 17.0009 14.3947 21.1258
Pt 19.3357 11.4811 18.1324
Pt 12.1474 13.286 6.91111
Pt 13.1086 6.40722 17.0524
Pt 13.9893 16.8093 14.9669
Pt 18.7212 10.4187 12.4964
Au 14.1353 8.4302 7.44309
Pt 16.7033 12.4038 18.0653
Pt 8.14283 17.1039 10.186
Au 5.09054 15.1085 13.1225
Pt 21.7095 15.0156 9.27508
Pt 9.80895 15.0654 10.3
Pt 10.769 12.643 11.1166
Pt 7.14793 9.97322 16.3982
Pt 15.7464 20.3762 14.0505
Pt 13.8669 17.4766 22.435
Au 18.6504 12.2559 6.38904
Pt 15.8372 19.6587 7.52412
Pt 12.5872 18.867 10.455
Au 13.7288 23.1922 11.2324
Pt 7.27128 10.1738 13.72
Pt 17.0329 19.7961 11.777
Pt 15.5724 18.861 20.9272
Pt 7.53017 12.261 15.3684
Pt 13.6508 20.8292 8.91791
Pt 21.4992 17.7907 9.42091
Au 14.4713 23.9617 16.3376
Pt 20.2768 8.99982 18.6969
Pt 16.2473 22.3869 12.4519
Au 21.3993 16.9553 6.9125
Pt 17.4981 14.6958 7.09743
Pt 9.56 21.3046 17.2569
Pt 17.1214 20.406 19.5392
Pt 22.2149 16.8053 13.6202
Pt 16.4138 15.0006 18.3661
Pt 23.3382 14.7721 15.3996
Au 23.22 19.1806 13.9922
Pt 11.3925 19.5928 12.601
Au 17.3531 22.9995 20.1816
Pt 13.1331 15.7773 7.37401
Pt 15.219 10.8032 20.0756
Pt 9.20692 11.6998 17.5264
Pt 15.5192 7.24632 17.575
Pt 19.5389 20.5278 11.9935
Pt 8.80712 17.7157 20.2194
Pt 23.3574 12.8183 13.725
Pt 14.1234 21.1771 16.2542
Pt 15.1732 6.35483 15.0492
Pt 14.7241 19.7732 18.4118
Pt 14.4275 14.6891 22.3747
Pt 11.8936 16.1477 16.891
Pt 17.8296 20.1615 9.21517
