286
Atoms. Timestep: 20380
Pt 16.7425 8.46205 17.2848
Pt 11.59 10.4564 12.6026
Au 22.8372 16.9446 21.3495
Pt 14.5061 9.91072 17.6653
Au 7.43728 8.61744 17.4245
Pt 7.51988 14.0087 17.0743
Pt 8.4351 9.9795 14.5663
Au 15.0549 14.894 24.4522
Pt 13.3694 6.66397 14.9948
Pt 17.0059 11.5622 13.2536
Au 10.3495 14.4983 23.2261
Pt 17.5147 18.7816 8.40102
Pt 11.5051 13.0392 12.7241
Au 17.106 14.7691 5.65646
Pt 11.8561 13.7923 18.0452
Pt 14.5249 7.07823 17.3573
Au 7.31468 9.95098 11.8935
Pt 12.2856 16.9301 8.88832
Pt 6.72213 13.2199 12.6922
Au 5.14589 15.4527 16.7
Pt 22.7327 16.1216 18.7518
Pt 17.09 12.9295 21.2817
Au 8.48042 14.042 8.03947
Pt 9.84272 16.0294 9.34097
Pt 18.5403 8.69336 9.36478
Au 14.6301 15.6595 4.96403
Pt 9.09116 16.8385 14.36
Pt 13.5801 13.7502 20.064
Au 15.7095 24.139 15.4829
Pt 9.93613 14.4674 15.73
Pt 11.9124 15.1753 10.968
Pt 13.0608 10.3748 15.1791
Pt 15.0575 9.53031 20.7861
Au 22.0429 21.4115 15.8173
Pt 14.3825 18.8908 21.9219
Pt 9.74691 9.71777 16.7932
Au 18.8953 7.65983 18.6083
Pt 9.1146 11.7068 12.5841
Pt 11.548 16.6459 19.0473
Au 20.0543 19.2486 7.92349
Pt 8.49977 10.5455 19.1007
Pt 12.4973 9.54982 21.6164
Pt 21.3662 13.0042 14.3308
Au 13.7873 17.9607 16.7131
Pt 19.5752 17.4173 9.80895
Pt 15.3738 14.9544 21.7285
Pt 14.0972 16.0002 18.7695
Au 20.6198 15.5724 23.0467
Pt 21.8721 9.66576 12.4718
Au 9.28964 22.1702 9.39923
Pt 8.15135 12.5807 14.8602
Pt 11.2003 20.5937 8.50307
Au 10.2387 13.0962 6.11207
Pt 7.74304 14.8279 10.54
Pt 8.89158 17.2409 19.5033
Pt 19.9361 10.136 18.9869
Au 6.0132 10.916 14.0975
Pt 13.3237 8.5417 13.0931
Pt 14.5531 12.0816 21.7375
Pt 11.131 14.4209 20.6365
Au 17.7776 15.8702 15.0088
Pt 11.3956 15.496 13.6783
Pt 13.9816 14.0832 12.2341
Au 14.4788 10.0383 23.4434
Pt 14.8976 13.3408 6.73869
Pt 18.7806 11.0663 8.29347
Au 14.5912 10.6233 6.05111
Pt 9.91153 17.0126 16.9135
Pt 16.0909 12.6521 23.706
Pt 8.70951 19.6011 8.66829
Au 16.348 7.22924 8.58718
Pt 10.3401 21.1397 18.5169
Pt 7.87373 17.7005 10.3101
Pt 6.853 15.4108 19.1073
Au 12.4242 17.64 12.1535
Pt 7.10212 11.2356 16.8689
Pt 11.847 12.1005 22.0235
Au 8.53346 19.3646 18.0109
Pt 10.6645 22.8236 14.4196
Pt 8.6792 20.3096 11.1695
Pt 18.5342 16.4775 7.5296
Pt 13.1037 19.1883 7.34136
Pt 18.4963 20.9328 9.5594
Pt 17.5896 20.2875 15.7193
Au 8.59413 8.16897 20.1045
Pt 15.8025 9.23387 12.6879
Pt 12.5681 23.0672 12.2966
Au 4.83818 15.0388 13.7768
Pt 5.58911 13.0947 15.4685
Pt 19.9015 19.9468 17.8426
Pt 16.6148 9.75166 7.58254
Pt 18.8414 13.698 7.37962
Au 8.72211 7.43481 15.1679
Pt 14.1044 15.7124 7.64131
Pt 11.7496 8.28056 10.8782
Au 21.3713 12.5053 22.6886
Pt 9.9399 10.3732 10.5194
Pt 13.7015 10.0368 10.9105
Au 11.11 7.31102 20.6457
Pt 14.1208 11.5487 13.2176
Pt 20.16 19.7836 15.118
Pt 9.51629 12.3398 17.2953
Au 15.4036 15.4967 16.4861
Pt 14.2426 8.77416 8.40844
Pt 12.2484 8.40184 16.9188
Pt 18.4368 17.2518 22.1198
Au 13.9086 16.1936 14.1909
Pt 18.4672 18.0665 16.6915
Pt 18.0124 15.6314 17.7999
Au 13.349 16.9136 23.7902
Pt 16.7745 12.5808 8.88223
Pt 15.25 18.5103 11.4527
Au 19.9804 22.4397 11.2553
Pt 9.93921 22.5615 11.97
Pt 10.5094 18.5048 10.2111
Pt 11.66 14.2023 8.45663
Au 12.6187 20.8469 21.2494
Pt 14.3872 16.1523 10.5484
Pt 9.50842 14.871 18.5224
Pt 20.4439 16.8512 17.8211
Au 23.0005 18.7727 11.6327
Pt 13.1556 11.1283 19.6508
Pt 7.24989 15.1225 14.8363
Pt 18.9748 11.6435 15.1929
Au 5.98005 17.5163 14.7446
Pt 23.2188 12.3947 16.158
Pt 17.6971 14.888 23.1037
Pt 15.7008 11.247 15.5977
Au 14.3358 12.8688 17.3414
Pt 9.23609 12.5872 21.7184
Au 9.76054 7.15429 17.9097
Pt 20.5557 19.7874 10.6297
Pt 9.69458 16.6487 11.8656
Pt 17.8857 7.21244 13.4533
Pt 16.4706 15.0461 8.30359
Pt 21.5624 20.76 12.9209
Pt 11.4517 20.805 11.108
Au 24.6182 14.7919 17.1966
Pt 9.07938 14.3478 12.9858
Pt 10.6348 12.0425 19.6289
Pt 18.9783 20.6917 12.9558
Au 16.1838 16.4776 12.8663
Pt 10.3081 15.7226 6.76694
Pt 9.98072 10.1006 21.3811
Pt 13.6481 18.6607 19.4197
Au 11.5434 18.1353 14.9622
Pt 13.1353 16.6203 21.1651
Pt 18.4989 17.9462 19.5071
Au 19.5454 20.2447 20.5482
Pt 14.2131 13.7911 9.39885
Pt 12.3134 12.2093 10.32
Pt 20.6003 18.1738 12.6986
Pt 17.2082 22.1567 11.5429
Pt 16.413 20.2141 13.1437
Pt 11.4224 18.9718 17.6266
Au 8.44058 21.2545 13.788
Pt 7.42202 16.849 16.9885
Pt 6.95952 16.1772 12.4959
Au 20.7588 18.414 22.2154
Pt 10.1546 19.1893 12.9928
Pt 22.9006 16.7092 13.3742
Pt 16.997 16.7963 10.1126
Pt 12.5319 14.3826 5.95028
Au 12.2137 6.03552 18.2647
Pt 18.7267 7.25852 15.9449
Pt 10.1528 11.9068 8.47503
Au 20.9793 15.5171 8.2324
Pt 11.0291 8.78404 14.6693
Pt 9.92178 13.4538 10.5563
Au 15.5906 20.1507 7.12527
Pt 10.5241 18.2418 7.45098
Pt 9.58857 8.65937 12.5233
Pt 15.1972 22.9957 13.0582
Au 7.66105 12.0658 10.1587
Pt 17.554 9.41185 14.8612
Pt 11.4405 6.79684 13.0837
Pt 19.4939 14.1994 16.0129
Au 12.9098 13.3637 15.0559
Pt 17.0416 12.0245 6.39685
Pt 17.4964 9.66579 19.8094
Au 22.1158 17.9748 9.16498
Pt 23.7218 14.5291 14.7032
Pt 12.0803 20.8427 13.6514
Pt 18.3081 9.56605 11.9886
Pt 15.0105 8.67421 15.181
Pt 19.9819 11.3866 12.8201
Pt 17.9515 18.9834 11.2459
Au 23.6718 11.7474 13.5115
Pt 12.5384 12.0408 7.20323
Pt 10.9888 9.41298 19.0868
Pt 12.8713 21.071 18.699
Au 15.7592 13.8067 14.2702
Pt 20.7153 17.235 15.3166
Pt 18.2868 18.2347 13.8723
Pt 19.2177 11.1345 21.3428
Au 12.3238 15.7411 16.4176
Pt 15.0104 18.0155 8.73491
Pt 16.041 14.2348 19.0478
Au 17.0751 19.5149 21.517
Pt 20.3741 13.7897 11.5978
Pt 7.61627 18.6371 12.8438
Pt 23.3299 16.8798 16.0478
Pt 12.533 17.0253 6.1176
Pt 13.2175 23.1298 14.8556
Pt 21.511 16.193 11.0879
Au 20.0757 7.67151 11.4568
Pt 20.3634 10.2849 10.3453
Pt 12.9699 14.4579 22.66
Pt 21.7 10.5358 15.0039
Au 14.0501 19.0384 13.9175
Pt 10.9244 19.0337 20.1443
Pt 14.2416 22.7204 17.2945
Pt 16.8939 10.5607 22.3224
Au 22.4587 10.3902 17.8776
Pt 19.5942 13.8022 21.3266
Au 8.04579 17.0556 7.69314
Pt 15.9415 20.5121 9.85753
Pt 22.6594 19.0244 14.4913
Pt 16.1082 17.2104 6.59542
Pt 16.0889 18.1732 15.3645
Pt 17.4556 20.2195 18.7071
Pt 17.1328 13.2374 16.7181
Au 14.7801 23.2206 10.4352
Pt 7.83956 12.9421 19.5131
Pt 8.59252 15.0389 21.0476
Au 13.437 12.4067 24.2542
Pt 22.9164 13.3323 18.5497
Pt 11.5959 22.6851 16.8917
Pt 11.994 9.98782 8.8196
Pt 21.282 12.054 19.9884
Au 22.7577 14.1618 9.74673
Pt 17.0677 7.32716 11.0926
Pt 22.1648 14.4213 20.8914
Au 18.7705 12.4465 23.6496
Pt 22.185 11.9289 11.278
Pt 14.4443 7.53568 10.7392
Pt 20.5452 12.7597 9.206
Pt 15.4404 12.0323 11.1066
Pt 14.5255 11.2873 8.6373
Pt 21.8812 14.8085 16.5017
Au 16.0512 7.31447 19.6036
Pt 10.6468 11.6824 14.9197
Pt 15.2454 6.65373 13.1121
Au 10.9692 6.0816 15.7179
Pt 18.8163 14.7359 9.74545
Pt 19.9751 8.78173 13.9749
Pt 17.7589 10.767 17.3917
Pt 16.3118 6.48413 15.4919
Pt 20.3773 14.3657 18.721
Pt 13.3365 8.21709 19.4215
Au 20.3065 22.8231 14.042
Pt 18.5085 12.5961 19.0714
Pt 17.837 15.4179 20.3932
Au 15.1984 20.9973 20.1101
Pt 13.7092 21.3828 8.88423
Pt 20.6813 15.3566 13.7354
Pt 18.3134 12.0556 10.8582
Pt 20.6566 12.1519 17.1988
Pt 10.5215 16.7433 21.6055
Pt 13.1085 19.1658 10.036
Au 11.8499 23.109 9.74053
Pt 16.6314 14.3322 11.2191
Pt 21.4172 18.5348 19.5767
Au 5.39895 13.0409 18.2578
Pt 22.8706 14.2053 12.3769
Pt 14.1148 20.9621 11.8012
Pt 20.366 16.3227 20.4809
Pt 19.3875 22.022 16.3743
Pt 16.1665 17.7781 18.1082
Pt 22.1133 18.8985 17.0656
Au 11.7876 18.7653 22.6735
Pt 19.9238 9.44168 16.5469
Au 16.062 17.2364 23.3589
Pt 12.9052 20.5419 16.0841
Pt 15.8938 17.255 20.5878
Pt 11.9825 11.2326 17.3121
Pt 17.5901 22.5445 14.3302
Pt 18.7976 16.1896 12.0856
Pt 16.3195 9.77514 10.1157
Pt 16.8592 22.3269 17.1361
Pt 15.8473 11.625 19.2805
Pt 18.4355 13.7378 13.3847
Pt 8.29919 18.9892 15.4009
Pt 15.2045 20.1654 17.4768
Pt 10.237 20.6142 15.7815
Pt 15.1798 21.3627 15.1035
