286
Atoms. Timestep: 20372
Pt 12.6492 12.1836 9.32035
Pt 12.3198 8.6767 16.9208
Au 19.8993 12.6811 22.942
Pt 9.0277 12.1721 12.518
Au 20.7145 7.15991 18.7225
Pt 16.8665 22.7361 15.3249
Pt 9.86519 8.10857 16.0256
Au 14.433 5.30913 11.6701
Pt 8.4632 18.1179 19.1162
Pt 17.774 20.4441 8.41589
Au 13.1868 13.4567 24.5298
Pt 21.9668 14.894 17.2694
Pt 9.0644 20.7888 10.5635
Au 11.6752 10.9871 7.05665
Pt 12.9019 10.792 21.8642
Pt 6.1991 15.8972 15.4483
Au 12.2468 20.4124 7.34252
Pt 10.3018 13.3684 7.78588
Pt 11.9435 18.5916 20.3365
Au 8.28562 15.7921 20.6939
Pt 21.7001 18.776 11.4025
Pt 14.4196 11.7191 7.12059
Au 10.7401 22.2527 8.86766
Pt 19.3428 13.1956 7.86081
Pt 11.4908 11.1489 11.5652
Au 15.325 24.3003 13.6699
Pt 18.399 7.9198 11.9169
Pt 15.3361 10.3207 22.5895
Au 20.6182 10.3484 8.93649
Pt 16.6247 10.0378 11.1341
Pt 13.935 18.4492 6.97923
Pt 13.2437 7.53767 10.1209
Pt 17.3012 10.3187 20.9807
Au 9.51447 18.0355 21.6886
Pt 17.984 6.98925 17.8834
Pt 10.0248 9.57592 18.415
Au 4.88715 13.8848 14.1926
Pt 13.535 11.1139 15.6979
Pt 11.6095 15.8662 15.6983
Au 23.2038 18.9153 16.0476
Pt 8.64537 20.2729 17.5291
Pt 11.8869 13.2924 22.2074
Pt 12.7274 18.7884 12.1865
Au 13.3373 13.0775 19.9476
Pt 23.1107 14.996 13.3136
Pt 14.6633 9.57397 17.6097
Pt 15.3207 14.1445 5.91964
Au 12.447 24.0456 10.5723
Pt 16.647 20.0115 14.4614
Au 20.9629 21.4339 11.8508
Pt 10.6015 16.6674 19.422
Pt 15.8631 19.8063 21.3447
Au 8.71072 17.1697 7.88357
Pt 7.75475 18.9278 12.0619
Pt 7.37628 15.9705 17.9656
Pt 18.8489 8.89365 19.5504
Au 11.8175 14.1678 11.6373
Pt 13.4453 21.9565 9.17429
Pt 15.2503 18.7842 16.9094
Pt 15.3735 21.3729 17.023
Au 12.8021 14.9484 18.0058
Pt 18.6659 17.7116 8.36776
Pt 11.7202 22.5954 15.8055
Au 9.49536 20.4222 20.1745
Pt 21.4684 19.6501 13.9295
Pt 11.6056 13.2169 16.3851
Au 20.0838 6.29246 16.2171
Pt 6.42386 11.9181 15.3318
Pt 12.3737 11.2538 18.2077
Pt 13.4647 15.9139 6.62047
Au 11.6507 5.96565 11.7033
Pt 10.2982 14.4274 13.9723
Pt 19.7099 11.2935 18.4827
Pt 18.9324 8.47215 14.5107
Au 19.6971 6.14578 13.5121
Pt 19.3088 17.195 11.066
Pt 16.6197 22.1417 12.664
Au 10.3767 22.4583 18.3376
Pt 12.7854 23.3585 13.3374
Pt 14.3941 16.6522 8.91776
Pt 18.6925 13.1767 14.3749
Pt 13.982 19.672 19.1111
Pt 12.3303 16.7544 10.6736
Pt 16.8661 17.4336 15.4799
Au 15.9214 5.91038 19.468
Pt 12.3141 9.18164 19.7761
Pt 15.1995 21.7861 19.7387
Au 9.14139 7.58489 13.2136
Pt 18.5176 12.5598 11.8547
Pt 20.1834 13.9182 18.8029
Pt 14.4359 18.4039 14.2912
Pt 15.9061 21.3743 10.0328
Au 15.2072 20.8238 7.43574
Pt 11.69 12.2845 13.9159
Pt 14.2236 19.2703 9.63461
Au 8.85155 22.5688 16.1258
Pt 19.906 19.6333 9.73228
Pt 15.4929 6.80989 17.0017
Au 21.1741 8.36202 12.5363
Pt 12.5391 17.763 17.4879
Pt 22.7917 17.0626 18.1757
Pt 9.96772 17.8132 16.9955
Au 16.1297 13.0638 13.0165
Pt 20.4624 12.689 10.2097
Pt 13.8096 7.61215 12.737
Pt 14.7567 12.3781 17.7509
Au 13.8914 13.7717 14.7841
Pt 9.94306 22.2171 13.7753
Pt 7.96641 20.5195 14.4996
Au 18.2463 8.58837 9.27354
Pt 21.6328 10.6273 16.4679
Pt 16.8401 12.5697 7.39434
Au 18.6907 10.616 6.98355
Pt 7.983 13.6512 19.2704
Pt 12.9548 16.0782 13.3117
Pt 13.8733 9.83559 11.1049
Au 9.10909 13.1705 21.7491
Pt 16.8753 19.7125 18.8644
Pt 21.4183 8.37967 15.2017
Pt 20.251 14.727 12.1106
Au 7.30318 11.919 10.2544
Pt 10.3705 20.3076 15.6575
Pt 21.0132 15.0485 14.8305
Pt 20.3739 10.61 13.9603
Au 14.4539 18.2314 23.9854
Pt 10.137 15.6618 9.52319
Pt 22.3794 12.4254 18.1662
Pt 8.24661 10.0731 16.3398
Au 12.7347 5.06366 13.8882
Pt 12.2293 20.7911 13.8257
Au 14.3663 8.18531 21.2847
Pt 9.04986 14.6389 11.6482
Pt 14.861 17.3157 11.5105
Pt 17.1645 15.3791 7.6253
Pt 19.1008 15.4711 16.8431
Pt 12.6544 13.478 6.636
Pt 13.0853 22.1403 18.0279
Au 9.15464 10.942 8.37157
Pt 17.1946 17.812 12.7938
Pt 17.5478 6.37703 15.3039
Pt 11.7496 17.7253 8.30189
Au 16.191 11.7441 15.605
Pt 13.724 9.66749 8.52503
Pt 22.1909 16.2307 11.1726
Pt 7.73622 16.4594 13.044
Au 23.0657 10.3464 14.1977
Pt 10.0948 9.92656 13.7396
Pt 17.5855 15.1278 11.9576
Au 5.34471 13.8584 17.1158
Pt 16.2587 18.3294 7.98138
Pt 12.7949 15.7067 20.6198
Pt 13.1116 20.1534 16.2105
Pt 11.7616 18.2238 14.6826
Pt 21.3599 12.8282 13.4621
Pt 14.5573 17.0722 18.9637
Au 7.39917 19.0901 9.35143
Pt 15.2238 11.8491 9.85693
Pt 6.46225 14.4417 11.5473
Au 17.8731 21.4142 20.732
Pt 10.7284 14.0039 19.8127
Pt 14.5415 12.8629 22.2552
Pt 9.10288 9.97385 11.0874
Pt 15.1297 10.4349 13.4545
Au 21.801 14.6142 8.7438
Pt 17.0373 13.7153 9.86494
Pt 7.63054 10.1033 13.6951
Au 15.4587 7.5828 8.51211
Pt 8.00566 14.2421 9.2051
Pt 21.9556 10.9866 11.7394
Au 17.3266 22.7601 18.2237
Pt 21.0717 17.2157 9.10061
Pt 15.8459 14.4547 23.8124
Pt 17.7433 10.6016 13.481
Au 19.874 15.7388 6.93507
Pt 17.8714 20.5003 16.61
Pt 7.55943 14.0231 13.958
Pt 15.4238 19.8137 12.1998
Au 18.549 15.882 14.2514
Pt 22.6065 13.6198 11.1462
Pt 15.5554 14.7244 18.3363
Au 21.35 22.2251 14.5231
Pt 20.4331 14.7654 21.2482
Pt 20.6649 17.1722 13.3104
Pt 9.07678 18.2692 14.4774
Pt 7.84844 13.7998 16.5773
Pt 18.3761 21.4681 10.9321
Pt 19.2856 15.1437 9.56494
Au 12.893 6.03675 16.4403
Pt 17.1808 12.2368 22.7792
Pt 12.0724 17.6898 22.768
Pt 11.2511 19.9529 18.1546
Au 14.3689 16.2372 16.0777
Pt 8.80836 15.98 15.4667
Pt 16.9207 17.5479 20.4413
Pt 19.3393 22.5609 16.26
Au 22.7067 14.8 19.8499
Pt 12.4122 14.7662 8.92739
Pt 10.9271 10.579 16.055
Au 21.5905 19.268 18.6721
Pt 16.2309 8.43358 19.347
Pt 11.7332 19.9844 10.0755
Pt 16.7844 16.4449 9.91662
Pt 14.8759 23.4621 11.2207
Pt 9.85642 18.1431 10.4354
Pt 23.1216 17.6212 13.5404
Au 10.9569 7.01729 18.4043
Pt 6.35685 18.3372 14.2092
Pt 13.6182 15.5879 23.0762
Pt 14.2994 8.41395 15.2462
Au 16.5796 14.5064 15.7713
Pt 11.3056 9.70346 9.40874
Pt 6.97988 11.7011 17.8741
Pt 11.6904 7.49706 14.3711
Au 15.3413 11.9259 24.6842
Pt 11.2756 8.49239 11.7301
Au 24.093 12.5057 13.0347
Pt 16.9038 8.95842 16.2308
Pt 16.5163 16.8724 22.9362
Pt 13.7611 12.3696 12.1337
Pt 20.6969 20.267 16.3224
Pt 19.1166 16.9058 21.6767
Pt 18.7103 12.5605 20.5512
Au 20.0099 10.25 21.5221
Pt 7.35215 18.2049 16.5554
Pt 9.90257 14.9818 17.6109
Au 8.28974 11.0025 20.0621
Pt 20.4154 12.9176 16.2941
Pt 14.3916 17.6681 21.4221
Pt 16.4022 8.14802 13.613
Pt 15.857 7.57682 11.0505
Au 18.0766 14.0574 5.55699
Pt 18.9065 21.4256 13.9343
Pt 17.9539 14.6389 22.2982
Au 14.2175 23.7201 16.082
Pt 17.0646 10.7229 18.3131
Pt 14.6943 10.6338 19.9936
Pt 13.6974 7.28742 18.7816
Pt 19.6393 8.88783 17.0875
Pt 10.4029 16.8139 12.6195
Pt 15.0773 5.97296 14.4831
Au 17.058 5.62242 12.6479
Pt 10.866 11.4365 20.3671
Pt 10.024 12.68 10.1538
Au 5.11146 16.3315 12.8949
Pt 14.5707 14.6704 11.0234
Pt 7.64564 16.639 10.4119
Pt 6.3338 12.1014 12.7019
Pt 12.6488 9.81649 13.6206
Pt 13.5383 21.3884 11.6755
Pt 12.1469 21.3188 20.2717
Au 15.8745 16.8026 5.79077
Pt 17.1967 19.0091 10.4473
Pt 19.2566 18.9693 20.1144
Au 18.0533 19.1658 22.5831
Pt 9.67631 12.1665 17.9031
Pt 17.037 16.89 17.9509
Pt 20.231 16.5745 18.9684
Pt 18.1343 11.384 9.46672
Pt 14.8257 14.0924 8.40521
Pt 16.2815 10.0397 8.18274
Au 10.9459 20.1845 22.4863
Pt 19.503 10.1693 11.3865
Pt 9.83747 19.6413 8.27511
Au 10.78 15.7346 6.69456
Pt 21.0566 17.4053 16.0952
Pt 13.5033 20.0461 22.0603
Pt 15.4688 15.1721 21.0983
Pt 19.1979 19.4514 12.328
Pt 9.15382 12.196 15.1113
Pt 23.4326 16.1481 15.644
Au 19.6345 21.2646 18.6564
Pt 14.5722 21.6338 14.358
Au 21.7419 17.3599 20.8735
Pt 15.5731 15.7901 13.5717
Pt 17.9613 15.1356 19.7308
Pt 16.2213 12.8179 20.1731
Pt 22.981 13.1237 15.503
Pt 19.0849 18.4207 17.5358
Pt 11.046 22.1298 11.5384
Pt 21.4896 9.73293 19.0898
Pt 21.3658 12.2782 20.5471
Pt 18.7055 10.9843 16.007
Pt 10.1933 19.7184 12.655
Pt 10.6425 15.5671 22.0917
Pt 17.8216 13.1504 17.7404
Pt 19.0385 18.7491 14.8356
