286
Atoms. Timestep: 20115
Pt 9.98223 12.0642 21.5697
Pt 11.6051 7.62829 16.8932
Au 7.61901 8.64774 14.5229
Pt 9.09947 10.7618 19.1401
Au 9.84489 8.01213 18.9494
Pt 10.1586 12.0641 17.0877
Pt 9.60678 9.32263 16.4137
Au 7.58197 9.73045 11.5712
Pt 11.4741 9.96147 18.1964
Pt 11.0258 9.69806 20.7484
Au 7.5133 12.5552 20.7872
Pt 7.94792 13.3384 15.5194
Pt 7.65552 10.8226 16.3486
Au 5.16878 12.5018 13.1327
Pt 7.45178 12.6883 18.1133
Pt 7.56561 14.9945 19.5625
Au 5.48223 12.376 15.886
Pt 9.29036 16.2177 12.4101
Pt 5.86197 14.699 14.3952
Au 5.63712 14.7205 11.6043
Pt 9.34026 11.8596 12.0194
Pt 8.11152 16.0794 15.0793
Au 5.64532 17.1529 15.5587
Pt 7.5174 16.1337 10.4192
Pt 8.37963 18.1414 8.83199
Au 6.61765 19.424 13.6772
Pt 8.15591 18.4974 11.4874
Pt 8.36467 21.1164 14.9662
Au 9.85351 23.1741 13.6955
Pt 6.75808 16.8169 12.995
Pt 9.77492 19.9776 9.93709
Pt 10.1791 7.40028 14.6609
Pt 13.8613 6.42815 17.2207
Au 9.25499 7.45176 12.0452
Pt 13.1139 11.7142 17.3168
Pt 15.4876 7.06134 19.082
Au 12.9992 8.64863 22.1502
Pt 9.74727 9.68313 13.4736
Pt 11.9889 8.44397 13.0299
Au 11.3074 8.47596 8.49716
Pt 9.91633 11.963 14.5696
Pt 9.7323 13.4262 19.359
Pt 15.7607 11.8244 17.9381
Au 10.5007 14.5472 15.1067
Pt 11.8854 12.1228 19.7533
Pt 12.3459 11.3381 22.3737
Pt 13.7553 10.3934 19.9525
Au 14.0272 13.1483 24.1028
Pt 12.8039 7.8928 19.5031
Au 11.3651 13.7751 23.1797
Pt 6.97707 12.4659 11.1372
Pt 8.79491 11.4757 9.42647
Au 7.20442 13.7888 8.79857
Pt 7.38823 11.3057 13.7809
Pt 11.2641 16.7588 13.8444
Pt 11.9646 11.2377 12.786
Au 13.3738 13.2917 11.3919
Pt 9.05976 14.8628 17.3446
Pt 10.3051 16.2356 19.3029
Pt 12.0018 14.6321 20.6216
Au 12.6347 16.2303 16.0087
Pt 6.29001 14.8003 17.0017
Pt 9.28884 14.6753 21.5455
Au 8.37177 17.2416 20.9111
Pt 10.313 17.1192 10.1655
Pt 9.06433 15.7253 8.32139
Au 12.6377 17.9305 5.9961
Pt 8.02803 14.0366 13.0079
Pt 10.9866 14.0112 12.4993
Pt 9.19903 14.1317 10.5225
Au 14.6014 18.0041 11.0488
Pt 13.8949 17.893 13.6474
Pt 9.14972 18.5067 14.1442
Pt 9.96179 17.2061 16.4665
Au 15.1092 15.5393 11.7623
Pt 7.43395 16.9188 17.8708
Pt 9.01151 18.6938 18.7131
Au 7.92744 20.9939 17.8094
Pt 10.8847 18.5617 7.93284
Pt 12.0255 21.1601 8.84532
Pt 13.7224 19.3685 7.92633
Pt 12.3026 19.0748 10.2127
Pt 8.89948 20.7729 12.4656
Pt 14.8354 20.4364 10.2029
Au 14.6334 21.9965 8.11351
Pt 10.8612 18.8632 12.2945
Pt 7.61131 18.8141 16.1782
Au 9.7717 22.665 16.6626
Pt 11.1305 21.5965 11.3974
Pt 13.2064 20.2199 12.3922
Pt 12.3895 5.98771 14.9629
Pt 14.5139 8.02702 10.7535
Au 11.1926 5.69863 12.6612
Pt 11.915 10.0261 15.3692
Pt 17.9128 7.33152 17.8351
Au 16.2999 5.21582 17.3334
Pt 11.2236 12.2287 10.2555
Pt 12.3938 13.4981 7.138
Au 13.4729 11.0627 6.28793
Pt 11.9745 7.39423 10.7514
Pt 10.1959 9.60638 10.7322
Pt 14.893 10.6099 15.5601
Au 17.7823 12.0543 12.6938
Pt 16.0606 8.05932 16.2134
Pt 13.8802 9.10116 17.4725
Pt 17.9542 8.57826 20.2488
Au 13.4509 14.8828 13.7863
Pt 15.4335 8.63231 21.1295
Pt 14.7859 10.622 22.7607
Au 17.5685 9.93552 22.5443
Pt 11.2333 15.8493 7.06618
Pt 13.9193 15.7206 6.6076
Au 15.5116 17.9445 6.07603
Pt 9.93848 13.3031 7.97074
Pt 11.6064 14.7221 9.53944
Pt 13.6957 12.1057 8.86563
Au 14.3951 14.6643 9.04649
Pt 16.8364 9.2729 11.6562
Pt 12.4952 12.6447 14.9855
Pt 16.164 9.42214 18.6342
Au 16.1267 13.188 11.0191
Pt 11.7499 14.1332 17.6661
Pt 10.7305 18.8471 20.7063
Pt 16.1531 11.2082 20.6323
Au 16.1499 15.3454 18.1683
Pt 14.1176 13.0126 21.545
Pt 10.845 16.5959 22.1258
Pt 16.5339 12.5671 22.9259
Au 13.4171 16.1092 18.4552
Pt 13.2259 15.6385 22.8793
Au 12.5018 18.5938 23.0029
Pt 15.3437 17.259 8.58833
Pt 16.3326 19.6861 8.12101
Pt 17.9263 17.4885 7.85002
Pt 12.8074 16.9327 8.79205
Pt 17.6396 20.7531 10.132
Pt 16.9454 15.4886 9.65377
Au 18.9541 19.9848 7.82755
Pt 12.4317 16.3929 11.5196
Pt 12.0247 18.8604 15.21
Pt 14.3335 9.72048 12.8715
Au 15.4151 16.4383 15.4292
Pt 11.6244 18.2519 18.0872
Pt 10.0493 19.9245 16.5263
Pt 13.1862 19.7622 19.2968
Au 14.1326 18.5662 16.963
Pt 10.5965 20.8804 18.954
Pt 12.8524 17.4222 20.6803
Au 12.009 21.1321 21.3318
Pt 16.088 22.8016 10.3802
Pt 13.4128 22.6142 10.5318
Pt 17.9287 22.0857 12.4865
Pt 15.0631 22.1679 12.6019
Pt 12.1162 23.1232 15.6141
Pt 13.7897 20.9486 14.7726
Au 14.5704 24.6375 12.0267
Pt 11.0317 20.9533 14.1979
Pt 12.451 21.0193 17.0832
Au 11.763 23.2516 18.5262
Pt 12.5603 22.9624 13.0608
Pt 14.5449 23.662 14.7672
Pt 16.3658 8.75026 8.98762
Pt 18.9488 8.38393 15.4179
Au 16.7566 6.57329 10.7631
Pt 15.0643 5.69874 14.9959
Pt 17.7369 6.17447 15.2699
Au 16.8258 5.12171 13.0084
Pt 15.9506 10.9377 7.64273
Pt 13.8498 9.38232 8.3594
Au 17.7065 12.6608 6.12708
Pt 11.3875 11.0113 8.04007
Pt 12.6826 10.0101 10.5771
Pt 15.1626 10.7742 10.4486
Au 18.4677 9.91985 7.522
Pt 13.7421 8.15085 14.9673
Pt 19.7707 9.06058 18.291
Pt 18.3469 11.1041 19.3004
Au 14.8987 12.2816 13.4607
Pt 15.9848 7.59667 13.4617
Pt 17.9611 13.238 17.8237
Au 22.1355 10.2671 18.8121
Pt 15.0063 13.2517 6.67842
Pt 16.5187 15.388 6.91344
Pt 18.9383 14.84 7.75059
Pt 16.9049 13.1462 8.51796
Pt 19.3335 16.2973 9.89151
Pt 19.6972 17.2383 12.3878
Au 20.5969 17.4167 7.80038
Pt 17.812 11.0245 9.90007
Pt 18.1403 15.1569 12.0989
Pt 14.1264 13.471 19.0243
Au 17.0819 12.4436 15.4323
Pt 17.9645 15.2975 16.0694
Pt 16.6396 13.6965 20.3857
Pt 19.2298 13.7972 14.2604
Au 14.6718 13.8279 16.214
Pt 18.784 12.1978 21.6014
Pt 15.8478 15.0473 22.9821
Au 20.1887 9.92365 20.9285
Pt 19.842 18.8973 9.98308
Pt 16.1598 19.894 12.4935
Pt 18.7653 19.567 12.3158
Pt 17.2817 18.1482 10.4137
Pt 15.9716 19.1399 15.0273
Pt 16.7293 17.3372 12.9199
Au 20.1618 21.4896 10.8132
Pt 16.4639 14.5353 13.9227
Pt 15.2562 17.9151 19.6019
Pt 20.2257 14.3049 17.0882
Au 16.8374 17.9492 17.297
Pt 14.7039 15.4865 20.7008
Pt 14.3818 19.8696 21.5368
Pt 18.3476 14.6667 22.3854
Au 17.2228 16.4866 20.6507
Pt 15.1133 17.5311 22.4136
Au 17.8375 17.2218 23.1479
Pt 16.4109 21.7135 14.7484
Pt 16.6889 23.5941 16.4454
Pt 18.4683 20.1848 14.7767
Pt 15.0887 21.1781 17.0359
Pt 16.4311 22.873 18.8689
Pt 15.971 20.2992 19.2773
Au 16.8762 24.2793 13.595
Pt 13.9679 22.1381 19.6312
Pt 17.0251 19.2648 21.5587
Au 16.052 21.9708 21.4599
Pt 14.1508 23.5202 17.3705
Pt 17.6677 20.769 17.2406
Pt 18.6988 8.33832 9.98503
Pt 18.5529 7.51467 12.7604
Au 20.955 7.83019 11.1871
Pt 13.8154 6.43161 12.7119
Pt 21.349 9.36068 16.1814
Au 20.2558 6.19543 14.2775
Pt 19.5705 12.3188 8.09783
Pt 19.0042 13.3786 10.3558
Pt 20.3537 10.3135 9.57228
Pt 19.3862 10.0098 12.0511
Pt 20.6103 12.31 12.5975
Pt 22.524 10.7574 14.0639
Au 21.4599 14.8492 8.78243
Pt 17.1014 9.84341 14.1886
Pt 20.154 11.5337 17.3125
Au 20.4358 6.79054 16.911
Pt 21.7789 17.1191 10.3576
Pt 20.7905 14.8679 11.5829
Pt 21.5525 12.6015 10.1411
Pt 23.1862 11.1427 16.5342
Pt 20.4916 15.9747 14.6192
Pt 22.4153 13.1042 17.9586
Au 23.4418 15.0023 11.1365
Pt 17.7937 10.2425 16.7972
Pt 20.751 12.3756 19.7742
Au 23.4009 17.0568 18.0788
Pt 21.5066 19.3383 12.058
Pt 20.7277 18.6888 14.5581
Pt 22.1822 14.397 13.6038
Pt 22.0989 19.3132 17.0144
Pt 18.9134 16.4283 18.3712
Pt 18.3331 17.5325 14.8628
Au 24.4975 15.5656 13.959
Pt 19.094 14.3401 19.8523
Pt 21.4853 15.3816 19.2022
Au 20.968 14.2522 21.7329
Pt 19.4387 18.8536 16.9539
Pt 20.485 21.3361 13.5076
Pt 22.3955 16.9803 12.8889
Pt 18.311 18.7988 19.3612
Pt 18.2753 21.3881 20.0605
Pt 21.0554 18.1319 19.2436
Au 22.8175 20.2145 14.4797
Pt 19.7851 16.7132 21.0609
Au 19.8317 19.4658 21.3862
Pt 18.9734 22.7984 17.7576
Pt 20.3259 20.6262 18.7267
Pt 20.9697 8.7019 13.6846
Pt 22.0119 10.289 11.567
Pt 19.5859 10.9227 14.7127
Pt 23.256 12.5322 12.2301
Pt 21.3965 12.7066 15.387
Pt 23.9358 12.9743 14.8182
Pt 22.8271 14.995 16.2071
Pt 23.054 17.5056 15.3163
Pt 21.0354 16.8411 16.9096
Pt 20.5696 21.23 16.1506
Pt 18.8007 22.8344 15.0505
