286
Atoms. Timestep: 20153
Pt 7.30835 11.6972 18.8785
Pt 10.1052 8.40797 19.0036
Au 8.33939 7.67685 16.9883
Pt 6.5191 10.073 17.0245
Au 7.4527 8.96291 19.2675
Pt 8.07945 12.1108 16.1106
Pt 7.82269 9.4765 14.8572
Au 6.48106 9.82745 12.4188
Pt 9.17738 10.2083 17.4047
Pt 9.24603 10.71 20.218
Au 8.69353 13.3826 21.1347
Pt 6.37339 13.8128 14.7135
Pt 5.83262 11.2458 14.7726
Au 5.24639 12.5478 12.4815
Pt 5.77217 12.7535 17.0675
Pt 7.00561 14.2506 19.0119
Au 5.44219 15.3879 17.0339
Pt 8.54116 16.2829 12.8553
Pt 5.67304 15.4385 12.8154
Au 5.68153 14.1357 10.0933
Pt 9.039 13.9677 14.2255
Pt 6.8508 16.4384 15.0218
Au 6.27433 18.9818 15.7068
Pt 6.93387 16.3708 10.6915
Pt 7.62018 18.1758 9.05205
Au 6.37145 19.9307 10.6456
Pt 8.47118 18.7036 11.5901
Pt 7.03352 20.4892 13.2094
Au 8.24425 22.0606 11.1977
Pt 6.26377 17.9952 12.8255
Pt 9.03833 20.22 9.46933
Pt 10.0197 8.13169 14.958
Pt 13.857 7.36648 16.8647
Au 10.7216 7.13637 12.5181
Pt 11.1673 6.99145 17.0907
Pt 12.7364 8.40545 18.988
Au 14.0068 8.56176 21.385
Pt 9.52007 9.56537 12.6069
Pt 11.9854 9.60554 13.5301
Au 8.18677 9.43173 10.2873
Pt 10.1261 10.8907 15.0548
Pt 9.57337 13.0276 18.6289
Pt 11.8304 9.31345 16.463
Au 10.6543 13.5003 16.252
Pt 11.412 10.7676 18.5716
Pt 11.1682 12.2598 20.9338
Pt 13.6185 11.0506 20.1582
Au 13.0153 11.2987 22.7903
Pt 11.5381 9.61233 21.0111
Au 11.3393 14.3194 22.7542
Pt 7.06297 11.8517 10.5363
Pt 9.00621 11.5395 8.67333
Au 7.07964 13.3028 7.85246
Pt 8.04189 11.707 13.3491
Pt 9.48866 16.3085 15.3617
Pt 11.2542 12.436 13.395
Au 13.0636 13.7778 11.8584
Pt 8.10592 14.5915 16.7822
Pt 10.3076 16.0367 17.8372
Pt 12.403 13.0757 18.5177
Au 12.6889 15.2107 16.6595
Pt 8.75682 15.8345 19.9351
Pt 11.1347 14.8662 20.1117
Au 10.4882 17.2152 21.6494
Pt 9.54133 16.652 10.4017
Pt 8.31259 15.8619 8.08284
Au 12.2349 16.7797 6.57903
Pt 7.5595 13.9277 12.0826
Pt 10.2608 14.4001 11.8005
Pt 8.65725 14.0286 9.7735
Au 15.0562 18.0656 9.83702
Pt 11.5231 15.2823 13.9714
Pt 8.50485 18.5445 14.3071
Pt 9.42796 18.6017 16.7125
Au 13.6576 18.2616 12.2111
Pt 7.59814 16.9815 17.6979
Pt 9.46519 18.2867 19.2468
Au 7.46484 19.7842 18.0652
Pt 10.0632 18.0017 8.04269
Pt 11.4929 20.1675 8.38347
Pt 13.6692 19.1591 7.46669
Pt 10.946 18.9335 10.7669
Pt 9.61064 20.6065 12.9652
Pt 13.4185 20.1724 10.2347
Au 13.2664 22.322 8.81725
Pt 10.8851 17.9589 13.2639
Pt 8.35271 20.8487 15.5897
Au 8.26589 22.8866 13.803
Pt 10.9884 21.6625 10.5079
Pt 12.1196 20.4296 12.6559
Pt 12.4735 7.21174 14.5941
Pt 12.4278 8.53797 11.0692
Au 13.4096 6.14333 12.2236
Pt 14.2194 9.33637 15.145
Pt 15.3029 7.69062 19.004
Au 16.3146 6.19248 16.8821
Pt 12.2767 11.1612 11.1421
Pt 11.5022 11.424 7.67027
Au 13.9519 11.6003 6.54566
Pt 10.7241 9.82423 9.63182
Pt 9.64006 11.7846 11.2611
Pt 16.353 10.7193 13.0308
Au 15.5684 13.1763 10.6989
Pt 16.2501 9.00137 16.9106
Pt 14.1179 10.374 17.6799
Pt 18.1908 8.79085 19.0428
Au 12.6917 11.7854 15.8593
Pt 16.02 10.0936 19.5447
Pt 15.642 10.5612 22.0236
Au 16.6838 7.96196 21.2418
Pt 10.9322 15.542 8.58025
Pt 12.4633 13.9344 7.16796
Au 16.1521 18.8772 6.53209
Pt 9.77767 13.5999 7.29499
Pt 11.2064 13.1512 9.62804
Pt 13.5923 12.3799 9.12421
Au 13.535 15.1394 9.38545
Pt 13.8592 11.4597 13.2025
Pt 15.4293 11.6673 15.4004
Pt 17.0446 11.5432 17.5112
Au 14.9322 15.838 11.8793
Pt 14.8441 13.1576 17.5094
Pt 12.0798 17.4241 19.4224
Pt 15.8108 12.7002 20.0617
Au 16.5227 15.1258 18.704
Pt 13.417 13.5235 21.1648
Pt 13.0133 16.1711 21.634
Pt 17.5723 12.2913 22.3154
Au 13.8125 15.3044 19.0851
Pt 15.2419 12.9825 22.9251
Au 14.1245 15.1401 23.7626
Pt 14.8046 16.7235 7.48244
Pt 15.4741 20.566 8.55142
Pt 17.38 17.8043 8.54013
Pt 12.4892 17.6462 9.13978
Pt 16.8864 19.8768 10.5989
Pt 16.2228 15.6283 9.51343
Au 18.0934 20.3291 8.11859
Pt 12.0134 16.299 11.3907
Pt 11.7397 17.5749 15.8007
Pt 13.7615 13.8679 14.6365
Au 13.9064 16.6713 14.3819
Pt 11.86 19.4277 17.6717
Pt 9.89338 21.0413 17.7805
Pt 13.6312 19.8039 19.5132
Au 14.0128 17.6999 17.4086
Pt 11.15 19.7977 20.3669
Pt 13.0129 18.7045 21.8684
Au 13.4232 21.4849 21.522
Pt 15.569 22.2405 10.5277
Pt 13.19 22.7216 11.6003
Pt 17.4001 21.7515 12.5975
Pt 14.7619 20.7877 12.4469
Pt 10.3904 22.5806 15.3874
Pt 13.5197 19.4218 14.8151
Au 15.2761 23.4057 13.3093
Pt 11.0112 20.1402 15.1625
Pt 12.3843 21.8814 16.9429
Au 11.6367 22.1986 19.4933
Pt 10.838 22.856 12.8408
Pt 13.0196 22.1549 14.3597
Pt 14.7454 7.67689 10.278
Pt 19.2564 8.47333 14.4037
Au 17.3216 6.67611 9.84192
Pt 14.9508 6.48522 14.5774
Pt 18.4903 7.66223 16.6935
Au 17.9509 5.9481 14.493
Pt 15.9692 11.5094 8.29424
Pt 16.3462 9.11379 8.8531
Au 17.2743 12.9096 6.22411
Pt 13.4079 9.76507 8.76025
Pt 14.9066 10.4769 10.7486
Pt 16.9523 8.80701 11.4753
Au 17.7582 11.3804 10.5955
Pt 14.4529 8.58818 12.7302
Pt 17.8619 10.4565 15.2513
Pt 20.4695 9.98992 19.945
Au 16.0138 13.5508 13.3138
Pt 16.6797 8.30839 14.2782
Pt 18.2899 11.5976 19.6698
Au 22.6519 10.1604 18.3786
Pt 15.1472 14.0089 7.47969
Pt 17.4052 15.6416 7.08778
Pt 19.5308 14.1621 7.28789
Pt 17.5083 13.5522 8.83011
Pt 19.0948 15.8105 9.5711
Pt 19.871 16.9386 12.1138
Au 19.9598 16.9832 7.45112
Pt 18.0842 14.3843 11.4926
Pt 16.6028 16.14 13.9424
Pt 17.0757 13.7205 15.8117
Au 18.9167 14.7873 13.9939
Pt 18.6411 13.7761 18.1372
Pt 18.169 14.2043 20.6966
Pt 20.6423 12.1366 18.4603
Au 18.4701 16.0636 16.4969
Pt 18.3359 9.92184 21.5617
Pt 17.1888 15.0765 23.1052
Au 19.3998 13.6521 23.6833
Pt 19.445 18.6149 9.81559
Pt 16.3625 18.8489 13.0696
Pt 18.8814 19.3844 12.27
Pt 17.4115 17.187 11.3294
Pt 16.032 18.3445 15.5811
Pt 18.5668 17.729 14.4167
Au 19.1784 21.3995 10.4585
Pt 15.4198 15.6449 16.3437
Pt 14.9389 17.6042 20.0718
Pt 20.8923 14.298 19.8631
Au 16.874 17.7138 18.0044
Pt 15.5275 15.1013 21.2253
Pt 15.4339 19.6963 21.7441
Pt 19.6659 15.7225 22.0663
Au 17.5033 17.0986 20.7608
Pt 15.4264 17.2754 22.7045
Au 18.0547 17.7706 23.2839
Pt 15.7373 20.9253 14.7786
Pt 17.1323 22.9253 15.3243
Pt 18.4796 20.5375 14.6267
Pt 14.6221 20.3597 17.114
Pt 16.6009 22.5662 17.9867
Pt 16.2683 20.046 19.2958
Au 19.4681 23.1854 14.2231
Pt 14.2509 22.2555 18.9576
Pt 17.9677 19.878 21.3764
Au 16.2206 22.1919 20.858
Pt 14.6759 22.9126 16.2182
Pt 17.3475 20.3015 16.9622
Pt 18.8044 8.9223 9.60417
Pt 18.8859 7.19036 12.1485
Au 21.0905 8.05589 10.722
Pt 16.2151 6.44535 12.2893
Pt 21.7318 9.05619 15.9541
Au 20.7089 6.62241 15.4974
Pt 18.7141 11.3319 8.0432
Pt 19.8439 13.1912 9.81125
Pt 20.6736 10.6612 9.76293
Pt 19.422 9.8231 12.0907
Pt 20.6297 12.243 12.0512
Pt 21.9959 11.7033 16.286
Au 21.3307 12.2368 7.65406
Pt 18.4279 12.2529 13.3097
Pt 19.6304 10.1258 17.1861
Au 20.7725 7.87929 18.1838
Pt 21.5971 14.805 8.78155
Pt 21.1827 14.7617 11.7306
Pt 22.4589 12.6747 10.1028
Pt 21.4092 13.4436 14.3207
Pt 21.1276 16.0583 14.3697
Pt 23.0529 13.3071 18.0203
Au 23.6012 15.1534 10.7348
Pt 19.4 12.539 15.9012
Pt 22.3638 12.1004 20.3785
Au 23.6835 14.4426 20.4119
Pt 21.522 17.0076 9.99225
Pt 20.8894 18.7813 14.094
Pt 23.4885 15.1201 13.4729
Pt 21.1092 17.0952 16.7184
Pt 19.6341 16.4106 19.0444
Pt 20.8769 14.4855 16.9216
Au 21.5822 19.5134 11.2232
Pt 20.0524 12.2413 21.4729
Pt 21.9061 16.4531 20.9371
Au 21.8506 14.0673 22.4202
Pt 19.5908 19.0904 16.5177
Pt 20.5365 21.2418 12.8912
Pt 22.5668 17.3224 12.3793
Pt 18.943 19.0565 19.028
Pt 18.5461 21.6271 19.3726
Pt 21.5621 18.4348 19.0378
Au 23.0514 20.0906 13.7535
Pt 19.9742 18.1521 21.2934
Au 20.6422 20.6081 20.739
Pt 19.1007 22.2581 16.8266
Pt 20.822 20.8253 18.1129
Pt 21.5397 8.37326 13.3487
Pt 22.3147 10.2966 11.7681
Pt 20.552 10.7654 14.2695
Pt 23.1438 10.6072 14.1906
Pt 23.2664 12.7128 12.5283
Pt 23.8838 13.0015 15.1386
Pt 23.2276 15.2807 16.101
Pt 23.2512 17.5709 14.8873
Pt 22.6044 15.9933 18.512
Pt 22.3863 19.3192 16.5483
Pt 21.0406 21.2071 15.434
