286
Atoms. Timestep: 20519
Pt 8.78352 13.6862 9.51673
Pt 16.7317 18.136 5.54965
Au 8.45864 12.6918 22.4747
Pt 20.7943 13.2733 19.028
Au 6.38547 17.2614 17.8944
Pt 10.2881 11.3999 8.76444
Pt 15.7095 13.8737 8.38796
Au 6.50902 17.0802 12.4597
Pt 19.0786 13.5527 9.57543
Pt 15.5628 10.8787 23.1583
Au 16.7997 22.1424 8.74393
Pt 13.4752 18.2908 16.2864
Pt 19.1835 15.5629 11.2717
Au 19.9141 15.124 24.4149
Pt 13.2779 12.362 23.0956
Pt 20.0949 13.6083 22.1608
Au 14.9765 5.70577 17.2492
Pt 11.2799 12.2838 6.26423
Pt 14.4943 14.545 19.1871
Au 17.3692 15.514 4.58669
Pt 17.3376 12.5721 21.9879
Pt 15.5968 19.8926 17.5773
Au 19.4707 21.7707 14.0015
Pt 16.6348 14.5636 10.8322
Pt 12.8757 14.1909 5.3945
Au 10.2702 6.36363 14.483
Pt 14.5496 7.60209 19.2779
Pt 22.1108 17.4131 13.7351
Au 14.2241 18.8775 4.6846
Pt 12.4448 11.4296 20.5457
Pt 12.7042 9.68057 18.6898
Pt 19.0945 11.8137 20.1874
Pt 14.7607 11.3013 8.65073
Au 17.507 21.6865 21.0923
Pt 20.9 19.194 9.52544
Pt 9.98978 16.2551 9.45393
Au 20.6588 14.3762 7.57779
Pt 19.3992 17.779 19.7122
Pt 17.1456 16.9125 21.0912
Au 15.1273 9.45718 6.61462
Pt 9.34301 13.0939 13.8051
Pt 18.1173 7.62824 12.6071
Pt 13.58 7.97314 11.2479
Au 18.4068 12.7521 24.4643
Pt 18.721 18.3463 10.6111
Pt 20.9794 10.4879 18.9351
Pt 11.0708 11.1149 14.2598
Au 6.71374 12.5308 14.5298
Pt 11.3742 17.0558 12.4944
Au 13.3856 20.3324 22.4543
Pt 9.23145 20.1517 10.3463
Pt 12.4997 10.2679 7.56224
Au 10.0857 22.738 15.6031
Pt 12.9526 13.0225 8.03861
Pt 11.9997 13.427 18.6098
Pt 18.2808 10.0851 18.4655
Au 10.5648 6.60469 17.1668
Pt 16.6608 11.7321 6.98054
Pt 13.5392 15.0137 23.465
Pt 7.67506 12.7961 17.0858
Au 19.9565 20.1939 20.9602
Pt 9.48695 14.1711 18.6026
Pt 14.111 13.4349 10.444
Au 7.96976 18.0053 8.72686
Pt 11.2874 13.7147 9.94212
Pt 13.9003 10.0031 13.9078
Au 13.065 9.73804 23.3514
Pt 10.1521 8.78298 18.7827
Pt 14.026 11.8033 6.01785
Pt 7.89335 12.4711 19.7597
Au 7.83808 10.1805 18.1417
Pt 13.7136 15.4035 7.52884
Pt 18.7075 12.7413 17.4513
Pt 16.7613 21.9717 18.5127
Au 8.03197 15.3877 7.55586
Pt 15.726 22.2736 16.025
Pt 11.6091 8.85392 9.65318
Au 17.1079 15.007 25.4131
Pt 14.7145 16.2023 4.90047
Pt 9.72315 8.89685 13.8342
Pt 11.9012 14.5031 12.3463
Pt 21.1734 11.6962 16.66
Pt 8.77074 10.8938 15.6194
Pt 17.9669 19.4169 13.2487
Au 10.8024 11.1485 22.8664
Pt 16.3054 16.0039 7.00226
Pt 17.8435 14.9629 22.8645
Au 8.71952 21.1139 17.4678
Pt 14.1423 22.2633 18.1911
Pt 13.0732 19.8093 18.5029
Pt 11.0157 14.7475 7.555
Pt 11.9384 9.80141 12.2033
Au 17.3208 7.76004 19.7176
Pt 7.50125 13.3077 11.8853
Pt 19.6555 7.92751 14.7446
Au 16.3166 7.42082 10.3874
Pt 9.89775 17.9337 20.769
Pt 21.9529 14.6819 13.8192
Au 23.4964 15.9311 11.924
Pt 14.796 7.40451 15.1129
Pt 21.4876 9.85715 14.4597
Pt 20.2604 12.2606 14.249
Au 24.5008 14.3449 14.001
Pt 15.3211 17.3625 13.9507
Pt 9.3801 15.1158 11.8627
Pt 17.9525 20.2956 16.0141
Au 12.553 19.8837 6.69967
Pt 11.0263 18.0493 18.1112
Pt 22.2334 18.6252 16.224
Au 10.194 14.7517 5.14119
Pt 19.2901 11.0043 22.6054
Pt 14.4626 17.8445 7.03536
Au 9.15284 10.3309 20.7868
Pt 16.164 19.6974 9.91593
Pt 18.9643 10.4652 15.8042
Pt 15.1903 18.001 19.3741
Au 7.99832 19.1936 19.2392
Pt 17.1668 8.69644 14.9461
Pt 11.3794 18.5539 10.3638
Pt 12.9474 16.2369 14.5635
Au 10.8842 13.9561 23.258
Pt 22.9134 12.0376 14.0293
Pt 15.3867 20.1861 7.22825
Pt 17.1673 15.4677 13.3079
Au 8.58448 8.2208 16.2517
Pt 13.7188 19.0929 9.17513
Pt 17.3942 17.9797 17.7947
Pt 19.7392 18.532 17.1384
Au 23.1972 12.0349 18.6434
Pt 17.8955 15.9123 9.04331
Au 19.6269 9.0783 20.7201
Pt 12.2476 13.5862 14.7207
Pt 17.5672 12.9631 14.8904
Pt 11.1563 7.37396 12.1224
Pt 22.697 14.7331 18.2886
Pt 15.5556 12.9759 12.6772
Pt 14.1513 21.9311 13.6028
Au 17.8237 20.5061 6.43005
Pt 13.8573 17.8916 11.5218
Pt 13.0174 12.1889 12.6283
Pt 6.96544 14.819 18.7316
Au 13.2184 23.2321 11.1104
Pt 10.2853 15.4551 14.4485
Pt 15.6177 22.0864 11.2838
Pt 21.1596 15.4857 20.4026
Au 23.4367 10.46 16.3124
Pt 21.4057 19.6113 18.7557
Pt 15.6055 10.0204 18.996
Au 11.6942 23.6289 13.3628
Pt 8.11717 11.3339 10.293
Pt 9.59551 9.44909 11.1286
Pt 16.9109 12.0689 9.89726
Pt 19.4522 14.6968 13.8971
Pt 17.309 19.4178 19.9655
Pt 18.0744 21.1113 11.3404
Au 13.3423 17.8345 23.535
Pt 17.9801 15.2769 16.1425
Pt 15.4346 18.7321 21.9673
Au 9.02471 22.0562 13.0807
Pt 20.5845 13.3537 11.8366
Pt 10.205 11.4136 18.37
Pt 14.7626 10.5373 11.2731
Pt 21.5971 10.9384 12.0302
Au 12.708 5.50548 15.5119
Pt 12.2635 16.8219 5.58443
Pt 13.4602 20.8844 16.0278
Au 6.46138 17.388 15.21
Pt 13.2878 16.7436 18.3492
Pt 19.6318 16.7428 22.1201
Au 21.6472 12.2991 9.46924
Pt 16.6311 17.3568 11.5506
Pt 23.2526 13.3169 16.1802
Pt 8.91741 16.6654 18.731
Au 6.68941 14.3262 21.291
Pt 11.354 15.8185 19.7612
Pt 15.7151 16.4549 23.4016
Pt 21.6212 14.947 10.0893
Au 11.4554 22.484 17.9685
Pt 11.0108 18.0294 15.1875
Pt 19.4846 10.9914 10.4997
Au 7.57358 19.7091 12.593
Pt 13.5184 14.498 16.7438
Pt 14.2145 21.6408 9.0894
Pt 14.5766 12.1879 15.2342
Pt 19.6029 15.6938 18.1458
Pt 21.273 17.295 11.2583
Pt 10.3841 12.8988 20.7375
Au 20.582 19.9467 12.0536
Pt 17.3195 18.2909 8.09917
Pt 16.8626 15.6047 18.7879
Pt 12.2239 8.17755 14.5502
Au 7.15553 15.6875 10.2342
Pt 23.1019 13.3045 11.7504
Pt 20.7469 14.1865 16.3118
Pt 11.1418 15.7023 16.9273
Au 19.0212 8.34173 10.0862
Pt 7.54132 15.0751 13.9337
Pt 8.23797 10.8574 12.9363
Au 20.7919 21.1321 16.499
Pt 17.096 10.0928 21.1345
Pt 12.0336 17.4284 8.06237
Pt 14.1784 9.76355 16.473
Pt 10.3005 12.0486 11.6287
Pt 20.2718 16.8132 8.78846
Pt 15.4486 16.5735 16.6445
Au 12.4853 21.7539 20.3956
Pt 19.1069 10.1355 13.1325
Pt 15.6304 19.6987 15.0066
Pt 18.5807 14.5332 20.3139
Au 21.65 11.6579 21.2172
Pt 15.6946 14.5702 21.4113
Pt 9.86261 17.0257 6.75721
Pt 10.963 9.40807 16.4289
Au 20.8052 8.31701 12.2017
Pt 15.5451 13.8238 5.71026
Au 17.3483 6.13245 15.6388
Pt 12.9884 7.58208 17.1407
Pt 15.1485 14.6937 14.6986
Pt 14.4337 15.4399 12.212
Pt 22.9349 15.9821 15.9476
Pt 8.42383 15.5417 16.3825
Pt 20.3896 16.619 15.5967
Au 16.1387 5.84313 13.195
Pt 14.3138 9.39589 21.1369
Pt 17.2497 9.89504 11.346
Au 5.91429 14.756 16.1693
Pt 10.9883 21.8097 11.4646
Pt 18.8716 16.5104 6.57989
Pt 20.9729 9.04319 16.8645
Pt 18.1434 12.6345 12.2623
Au 19.1714 11.4452 7.88385
Pt 12.5003 11.2442 10.0807
Pt 13.9835 16.5004 21.1601
Au 7.15356 16.9448 20.6801
Pt 17.7263 17.6726 15.1901
Pt 10.1943 19.2556 8.04971
Pt 14.8764 12.0586 20.9556
Pt 16.5438 10.9691 16.6383
Pt 8.77966 17.536 13.9165
Pt 11.4924 16.3901 22.2581
Au 18.1424 17.2486 24.3402
Pt 15.542 19.7539 12.4212
Pt 12.5035 18.5548 20.6851
Au 18.4213 22.7927 16.4792
Pt 13.1221 19.0845 13.7576
Pt 14.2271 12.0318 18.2245
Pt 15.2311 16.6556 9.43679
Pt 18.0734 13.9486 7.03409
Pt 16.9532 9.66726 8.74409
Pt 11.605 9.12003 21.0858
Au 18.0462 19.2109 22.5622
Pt 13.4759 6.36642 13.1345
Pt 9.18773 15.1973 21.1695
Au 13.0152 23.4387 15.774
Pt 10.1104 13.2065 16.2505
Pt 18.9864 20.7181 18.4731
Pt 12.7985 14.053 21.1734
Pt 12.2477 11.6426 16.5731
Pt 9.04381 20.1261 14.8837
Pt 13.188 20.5099 11.4334
Au 8.8678 12.901 6.94857
Pt 18.7083 7.90036 17.2277
Pt 15.5747 8.39243 12.7938
Au 19.9053 18.8945 7.02607
Pt 8.70953 18.3019 16.6744
Pt 16.0822 13.7052 17.0238
Pt 14.2992 8.83787 9.05174
Pt 19.4309 17.2823 13.1207
Pt 10.5283 20.2152 19.3918
Pt 11.7187 20.9776 9.1607
Au 11.9976 6.96844 19.5893
Pt 14.9769 20.7011 20.2287
Au 21.7768 18.0511 20.9418
Pt 12.6892 15.9233 10.113
Pt 16.1511 8.1343 17.2782
Pt 10.4204 19.4835 12.6716
Pt 11.6133 21.1632 14.1453
Pt 8.86753 17.7013 11.2604
Pt 11.0476 20.211 16.6467
Pt 16.7659 12.5938 19.2873
Pt 18.7072 20.3838 8.94023
Pt 16.5098 10.8316 13.7545
Pt 15.6552 13.451 23.8093
Pt 20.2666 19.2622 14.6419
Pt 16.8513 21.8341 13.7426
Pt 21.8273 17.1078 18.2775
