286
Atoms. Timestep: 20396
Pt 13.2787 19.2488 19.03
Pt 19.4699 18.9368 9.1613
Au 5.91286 12.6086 13.8235
Pt 14.247 9.11287 21.4857
Au 7.78374 8.91868 13.8397
Pt 14.7939 8.99236 18.8064
Pt 17.6008 9.9934 13.9054
Au 11.8027 11.2473 6.98196
Pt 13.4406 7.86876 12.4153
Pt 18.6343 20.4579 13.0316
Au 23.7795 16.4968 11.8642
Pt 13.3982 20.3049 21.372
Pt 22.0219 16.2409 14.1279
Au 17.2209 9.29209 22.8545
Pt 17.8249 19.7138 20.1668
Pt 19.3725 19.183 17.9161
Au 19.1855 22.6904 17.4997
Pt 7.24395 18.1475 18.7334
Pt 11.849 13.9804 8.03635
Au 12.6875 13.5152 5.42948
Pt 17.9236 22.9353 12.9613
Pt 18.3875 12.0021 18.6665
Au 9.83342 22.0783 10.9907
Pt 21.8258 10.0946 11.7206
Pt 21.4397 17.4848 11.2255
Au 16.3694 16.84 6.26523
Pt 17.6213 12.1059 22.7168
Pt 18.8732 9.17302 8.78738
Au 9.90814 13.4094 6.29129
Pt 9.30333 9.08965 11.3899
Pt 20.1545 16.6227 17.8751
Pt 15.2934 14.4459 15.3684
Pt 8.32516 10.288 19.0851
Au 24.5161 17.1383 14.584
Pt 9.68419 15.2899 8.85484
Pt 20.0078 9.86867 18.5748
Au 17.7785 7.10629 10.3127
Pt 21.0268 18.427 15.9374
Pt 16.7849 12.6522 16.6366
Au 22.7313 10.0079 14.332
Pt 15.3973 14.4575 18.2153
Pt 9.28605 12.3554 20.3111
Pt 12.6173 16.2442 8.87887
Au 12.9025 6.23905 14.5552
Pt 11.9069 9.89681 11.8406
Pt 12.5493 11.6566 9.64979
Pt 15.3584 11.7321 18.7101
Au 8.88928 18.9799 20.6607
Pt 20.1472 9.16843 13.422
Au 10.3276 22.438 17.8426
Pt 22.7453 18.6546 13.302
Pt 18.5362 18.3743 11.3873
Au 6.16228 15.8935 19.7974
Pt 18.4224 9.67857 11.2893
Pt 7.64937 19.1331 13.9887
Pt 11.9968 19.71 14.42
Au 19.7738 7.01537 14.9229
Pt 15.2253 22.4612 17.6615
Pt 10.4829 15.4991 13.3979
Pt 17.9871 17.2332 19.056
Au 8.12107 16.4413 7.22326
Pt 22.1331 16.0478 19.3385
Pt 12.7756 11.3044 14.4212
Au 16.3662 7.69178 20.6678
Pt 15.0027 16.8895 16.5408
Pt 10.5483 12.7412 13.893
Au 19.0298 7.66971 20.0199
Pt 20.1505 18.2357 20.2628
Pt 9.98884 18.03 14.8513
Pt 12.9423 9.92208 17.0871
Au 15.9243 22.0925 9.27598
Pt 20.3253 13.4237 9.83355
Pt 13.7402 9.22251 10.0418
Pt 10.2156 14.1225 18.5071
Au 14.0361 20.5769 7.84528
Pt 18.0087 14.6592 18.9792
Pt 12.2692 21.4207 9.90529
Au 12.7403 23.5838 16.9932
Pt 16.8277 19.5846 9.4885
Pt 17.2326 17.0845 9.12386
Pt 15.4655 11.8849 14.3732
Pt 10.5795 9.94001 20.675
Pt 21.0461 11.7783 17.2395
Pt 21.635 14.6559 11.8315
Au 8.01675 10.3727 21.6832
Pt 14.8481 17.9849 8.23382
Pt 18.7698 10.3285 20.8893
Au 11.2526 20.4367 7.56857
Pt 15.7802 10.095 16.5167
Pt 20.1661 18.4025 13.5673
Pt 17.1631 22.6052 15.6955
Pt 8.56324 20.4806 18.413
Au 20.1254 21.0716 19.5505
Pt 14.0606 12.828 7.63233
Pt 19.7021 16.1466 9.97402
Au 6.13749 12.1482 16.6392
Pt 22.9357 13.4474 18.2053
Pt 9.66607 20.7587 13.3475
Au 23.9707 14.293 13.3706
Pt 13.3097 18.1059 12.2166
Pt 20.442 11.5634 22.3478
Pt 19.8025 15.7173 20.8022
Au 22.8137 12.3929 10.4108
Pt 10.0932 10.1367 13.6062
Pt 15.4535 14.2426 5.76547
Pt 8.64988 15.7139 11.368
Au 23.3891 19.568 15.8105
Pt 18.9476 7.80218 17.2822
Pt 19.1525 13.1157 20.8519
Au 19.019 17.0651 7.15814
Pt 17.3545 9.55168 18.6914
Pt 15.4452 13.7224 23.1475
Au 22.1109 18.9729 18.5591
Pt 11.725 12.7087 20.9515
Pt 16.8285 11.7318 11.999
Pt 14.8522 9.28709 14.2077
Au 5.48603 16.7542 17.2477
Pt 12.4862 18.7649 9.38063
Pt 9.9047 19.7465 9.7506
Pt 11.3125 17.699 19.4538
Au 20.4608 22.4721 12.2523
Pt 14.2501 12.1903 21.3967
Pt 17.1597 18.3402 16.5725
Pt 16.4164 21.2365 11.7513
Au 8.01106 10.7264 9.62913
Pt 10.0639 11.7677 11.3905
Pt 18.0538 11.7335 9.67061
Pt 18.8577 20.1198 15.5434
Au 15.13 10.9429 23.5508
Pt 12.2966 16.1054 22.7799
Au 12.6737 13.3324 23.4753
Pt 9.87161 8.12277 15.4675
Pt 17.5645 17.8258 14.0448
Pt 14.5246 7.69493 16.2387
Pt 10.9713 11.4343 18.4777
Pt 7.15214 19.1854 16.4432
Pt 17.1932 10.4766 7.28859
Au 7.70226 13.7179 7.85152
Pt 9.9168 18.591 17.4846
Pt 10.6777 9.93646 9.32519
Pt 8.67853 12.229 17.3996
Au 12.6616 18.3054 6.59189
Pt 20.3694 11.3992 14.7349
Pt 14.427 10.2133 7.63008
Pt 17.9025 17.4511 21.7429
Au 13.6575 18.4882 23.492
Pt 15.4636 15.2479 8.25775
Pt 13.6959 17.5236 21.0469
Au 7.82741 9.55255 16.5816
Pt 8.35318 14.7215 20.5988
Pt 10.2444 8.8792 18.0279
Pt 16.0459 16.0709 20.3382
Pt 19.4957 16.3635 15.3454
Pt 13.0138 21.8703 19.0688
Pt 8.33862 17.7233 9.73848
Au 15.0011 6.84331 10.4315
Pt 15.7469 18.9452 21.6741
Pt 14.7813 16.6933 10.5277
Au 21.5138 17.409 8.45345
Pt 16.2821 13.8747 10.3393
Pt 22.2678 12.3152 12.9789
Pt 12.4648 10.6419 22.5055
Pt 17.4995 15.0392 14.054
Au 24.5058 15.5318 18.3784
Pt 20.8402 19.9619 11.4657
Pt 7.58877 14.641 17.8432
Au 17.5504 22.4278 19.6564
Pt 13.959 14.7422 21.1888
Pt 17.1235 7.95809 15.4263
Au 21.9067 12.5301 7.86698
Pt 12.3458 8.2652 19.4895
Pt 8.00731 16.3704 13.847
Pt 8.05544 16.8126 16.4006
Au 13.0473 24.036 14.0833
Pt 11.3883 13.0968 16.3974
Pt 17.0776 16.1343 11.6161
Pt 7.71037 11.1685 12.3151
Au 15.1245 24.358 15.8184
Pt 18.5559 13.9193 11.7178
Pt 13.0094 13.4342 18.8389
Au 21.2051 9.21373 20.9037
Pt 10.4953 10.6322 16.0464
Pt 14.4385 19.9345 10.4415
Pt 13.9781 12.3703 16.5636
Pt 12.5236 18.0047 16.7705
Pt 13.718 14.0397 10.0277
Pt 16.5156 7.19917 17.9508
Au 20.3853 7.99329 10.8583
Pt 17.3759 15.6664 16.6902
Pt 19.246 12.3357 7.46781
Pt 19.1853 13.5797 16.4525
Au 15.5562 6.61406 13.5641
Pt 14.313 10.9288 12.0967
Pt 11.4502 18.6917 21.8642
Pt 16.2252 10.6203 20.8563
Au 22.5421 15.0871 9.40346
Pt 11.9989 20.5429 17.0128
Pt 15.6947 18.303 18.9604
Au 15.304 11.6071 5.53727
Pt 8.19269 11.6349 14.8824
Pt 22.711 12.6214 15.4849
Pt 12.543 12.7396 12.1027
Pt 15.3185 11.4986 9.70606
Pt 9.91823 12.431 8.80786
Pt 18.6701 21.2186 10.5297
Au 6.68472 15.6034 9.55704
Pt 19.8343 11.738 12.078
Pt 20.5111 14.0064 18.7667
Pt 20.4569 13.9807 14.0934
Au 5.67341 17.3466 14.6042
Pt 9.78792 16.7067 21.6545
Pt 11.5475 15.302 20.3367
Pt 20.9063 9.19762 16.1069
Au 20.6022 14.8654 7.37628
Pt 9.04363 14.2429 15.5815
Au 5.02712 14.1699 17.9787
Pt 10.0924 11.6919 22.7466
Pt 15.4432 22.9236 13.5969
Pt 10.9906 17.0183 10.7679
Pt 20.6081 10.8196 9.55509
Pt 19.6635 22.4883 14.8511
Pt 17.6351 14.9107 22.2815
Au 12.3719 8.58522 7.86248
Pt 21.0827 20.9386 16.8461
Pt 15.0944 13.8936 12.6391
Au 7.6568 12.9398 22.3801
Pt 7.997 13.3158 10.5086
Pt 18.0928 12.5482 14.1939
Pt 15.3795 16.4295 22.8338
Pt 18.0855 7.54464 12.9254
Au 6.5544 17.6692 11.8297
Pt 19.5873 16.1165 12.6476
Pt 10.2236 14.2541 22.4554
Au 6.03092 15.0083 12.4038
Pt 15.9813 8.87755 11.8802
Pt 16.3892 20.4682 14.522
Pt 13.6071 16.3731 18.825
Pt 14.8 19.895 17.0218
Pt 15.403 20.8355 19.755
Pt 9.38137 18.1998 12.2901
Au 7.7829 20.1704 11.3675
Pt 13.908 21.7052 15.3706
Pt 12.0482 7.3721 16.9326
Au 19.9922 14.0646 23.1829
Pt 21.3331 20.6656 14.1727
Pt 6.89573 12.6656 19.4503
Pt 6.45741 14.75 15.397
Pt 17.9978 14.6262 6.28263
Pt 15.9992 18.6828 12.1585
Pt 9.39117 20.5319 15.8856
Au 14.0398 6.4044 18.6231
Pt 10.8504 14.207 10.8297
Pt 11.2433 22.253 15.1583
Au 11.5865 7.55065 10.3413
Pt 8.3006 13.7071 13.084
Pt 17.2524 20.746 17.6481
Pt 15.1144 16.4011 13.5689
Pt 14.0477 20.6388 12.9693
Pt 10.6187 16.0612 16.6277
Pt 16.3205 9.10542 9.28736
Au 10.6823 7.35386 12.9818
Pt 16.4339 13.3138 20.5666
Pt 13.0535 10.719 19.7024
Au 10.9302 15.9114 6.25071
Pt 18.4863 10.4193 16.3443
Pt 14.5329 18.6816 14.7132
Pt 21.4932 14.8405 16.4475
Pt 10.935 20.3691 19.6346
Pt 14.1701 22.6249 11.2808
Pt 23.9614 14.8636 15.9009
Au 21.9446 13.9356 21.1762
Pt 12.8773 15.5298 12.0324
Au 21.3653 7.70456 18.4474
Pt 11.48 19.7246 11.7665
Pt 13.0168 15.1424 16.6933
Pt 12.4324 16.8592 14.4357
Pt 12.8624 14.1351 14.3205
Pt 13.6209 15.8328 6.52873
Pt 11.9394 22.1466 12.6299
Pt 9.12362 16.503 18.9762
Pt 22.9459 17.0469 16.8626
Pt 12.2786 8.81905 14.6856
Pt 21.333 11.7041 19.8658
Pt 10.3971 17.774 8.0535
Pt 18.1828 14.5933 8.7886
Pt 16.614 12.8469 7.65903
