286
Atoms. Timestep: 20418
Pt 7.07747 11.9199 19.0021
Pt 10.0314 8.54008 18.9755
Au 8.24135 7.80043 17.0045
Pt 6.49414 10.3447 17.0373
Au 7.36975 9.16256 19.2377
Pt 8.1061 12.1811 15.9784
Pt 7.78645 9.57145 14.9056
Au 6.52169 9.83974 12.3655
Pt 9.17733 10.3178 17.372
Pt 9.22698 10.8366 20.1397
Au 8.58915 13.2961 21.04
Pt 6.53657 13.8708 14.4482
Pt 5.84143 11.3729 14.7001
Au 5.39184 12.5749 12.2985
Pt 5.92195 13.0795 16.9751
Pt 7.3719 14.667 18.9231
Au 5.57076 15.7095 17.1942
Pt 8.60976 16.0814 13.0699
Pt 5.82115 15.4408 12.4749
Au 5.94393 14.1806 9.95543
Pt 9.39216 13.8152 14.2611
Pt 6.64154 16.449 14.8738
Au 6.15485 19.0768 15.5067
Pt 7.26074 16.4532 10.4627
Pt 8.85197 18.4516 9.09165
Au 6.44573 19.1613 10.3557
Pt 8.56272 18.4051 11.7816
Pt 7.21734 20.4501 12.8151
Au 8.82569 22.8043 12.1481
Pt 6.25825 17.9866 12.8247
Pt 8.73367 20.7183 10.4468
Pt 9.99249 8.21298 15.0021
Pt 13.6869 7.26411 16.9957
Au 10.7351 7.09174 12.6009
Pt 11.0461 7.03767 17.1144
Pt 12.6242 8.40983 19.0665
Au 13.9213 8.39239 21.5117
Pt 9.40069 9.45117 12.6663
Pt 11.9319 9.58076 13.4552
Au 8.33874 9.38229 10.2467
Pt 10.1803 10.9798 14.9733
Pt 9.26952 12.895 18.3078
Pt 11.7025 9.4211 16.6016
Au 11.0137 13.589 16.4663
Pt 11.4391 11.1335 18.6683
Pt 11.1153 12.1036 21.4289
Pt 13.5859 10.8201 20.3566
Au 13.0711 11.01 22.9863
Pt 11.4142 9.56322 21.0299
Au 12.6175 13.6726 23.7647
Pt 7.26367 11.8387 10.4675
Pt 9.15486 11.471 8.63704
Au 7.28515 13.2923 7.74725
Pt 8.08905 11.7139 13.2638
Pt 9.93361 16.4057 15.5249
Pt 11.5859 12.3739 13.3209
Au 13.296 13.5513 11.5561
Pt 8.07067 14.7393 16.4291
Pt 9.87112 15.679 18.1007
Pt 11.2158 13.9795 19.5327
Au 12.7127 15.7208 16.4488
Pt 9.0162 15.8839 20.5889
Pt 10.8477 14.683 22.0067
Au 10.2473 18.7928 21.5049
Pt 9.86319 16.4969 10.5705
Pt 8.64298 15.9803 7.98478
Au 10.7179 15.6069 5.8779
Pt 7.8148 13.9164 11.9759
Pt 10.4678 14.2073 11.7638
Pt 8.87022 14.0277 9.65623
Au 14.7112 17.8372 9.26516
Pt 11.734 15.1304 13.9827
Pt 8.52075 18.3732 14.451
Pt 9.79326 19.0629 16.6605
Au 13.7316 18.2634 11.9217
Pt 7.75876 17.3236 17.1139
Pt 9.12122 18.0439 19.1729
Au 7.6415 20.0164 17.8804
Pt 10.6026 17.8152 7.30774
Pt 10.912 20.2008 8.60212
Pt 13.061 19.2197 7.47703
Pt 10.9191 19.1634 10.9669
Pt 9.76525 20.4964 13.0117
Pt 13.3648 20.1592 10.1295
Au 13.0907 22.0922 8.54899
Pt 10.8742 17.7201 13.1419
Pt 8.24064 20.7913 15.2723
Au 9.25651 23.1351 14.8453
Pt 11.1132 21.8412 10.7328
Pt 12.3738 20.4094 12.8065
Pt 12.434 7.22815 14.6774
Pt 12.4146 8.3792 11.0473
Au 13.5664 6.27521 12.39
Pt 14.0152 9.32806 15.2115
Pt 15.1615 7.56851 19.1574
Au 16.2605 6.05216 17.0922
Pt 12.528 10.9692 11.0901
Pt 11.6968 11.3025 7.52499
Au 14.1826 11.5718 6.43043
Pt 10.8942 9.78705 9.52602
Pt 9.85094 11.6173 11.2775
Pt 15.6552 11.3887 15.2414
Au 15.7622 13.4754 10.3029
Pt 15.9769 8.70401 16.9633
Pt 14.0055 10.2521 17.7413
Pt 18.1925 8.6649 18.9807
Au 12.8274 11.7816 15.7111
Pt 15.9998 9.96403 19.5442
Pt 15.6199 10.4348 22.1093
Au 16.6674 7.9194 21.2915
Pt 11.087 15.3673 8.57752
Pt 12.5953 13.8042 6.96834
Au 15.4987 17.3991 6.64968
Pt 9.9257 13.4445 7.16863
Pt 11.3468 12.9398 9.5296
Pt 13.7557 12.3483 8.94597
Au 13.6685 15.129 9.24101
Pt 14.1118 11.3636 13.1947
Pt 14.511 13.6718 16.5361
Pt 16.0999 12.0321 17.805
Au 15.1106 15.8496 11.6432
Pt 13.4667 12.8215 18.6263
Pt 11.4494 16.735 20.3416
Pt 15.7645 12.5141 20.3741
Au 16.0924 14.7485 18.5778
Pt 13.3181 13.4264 21.1743
Pt 13.1946 15.8744 22.1474
Pt 17.5395 12.2361 22.3684
Au 13.4653 15.5478 19.0851
Pt 15.1307 12.9589 23.0194
Au 14.8788 15.3678 24.1388
Pt 13.0552 16.5265 7.05911
Pt 15.3457 20.1674 8.16661
Pt 17.427 18.1666 8.35352
Pt 12.0958 17.6556 9.37132
Pt 16.4007 19.5046 10.5533
Pt 16.3463 15.862 9.08096
Au 17.8035 20.9353 8.80128
Pt 12.3098 16.0763 11.5243
Pt 11.9879 18.2564 15.3884
Pt 14.1677 13.9931 14.063
Au 14.0261 16.7672 14.1631
Pt 11.5644 17.7057 17.9399
Pt 9.80053 21.6965 17.2235
Pt 12.9985 19.1152 19.5383
Au 14.2412 18.0859 17.2778
Pt 10.5844 20.1611 19.1652
Pt 12.8242 18.3317 22.0271
Au 12.1138 20.9466 21.2987
Pt 15.5074 21.9983 10.0952
Pt 13.4031 22.6926 11.5607
Pt 17.5151 21.5594 11.9976
Pt 14.9299 20.779 12.3405
Pt 11.6798 23.1011 16.0163
Pt 14.0939 19.4903 14.6501
Au 15.6869 23.4026 12.9973
Pt 11.1569 20.7745 15.0858
Pt 12.466 20.5331 17.2636
Au 11.6653 22.7092 18.8765
Pt 11.3739 22.8263 13.2886
Pt 13.7326 22.1905 14.5872
Pt 14.88 7.87104 10.3709
Pt 19.2856 8.90188 14.6179
Au 17.4597 6.99305 10.0615
Pt 15.0797 6.8688 14.7676
Pt 18.3957 7.6783 16.6692
Au 17.8294 6.21538 14.565
Pt 16.2024 11.6915 8.13976
Pt 16.3826 9.32407 8.92929
Au 17.4742 13.0804 6.05996
Pt 13.5952 9.7448 8.83883
Pt 15.1792 10.8256 10.7803
Pt 17.0327 9.28719 11.7185
Au 17.9283 11.6569 10.616
Pt 14.4636 8.8164 12.71
Pt 17.7467 10.4574 16.506
Pt 20.4744 9.93314 19.8388
Au 16.3612 12.9775 12.8771
Pt 16.7065 8.9078 14.3475
Pt 18.2405 11.4192 19.1721
Au 22.7071 10.0457 18.366
Pt 15.2845 14.1975 7.24402
Pt 17.7393 15.8235 6.89507
Pt 19.8039 14.2693 7.13239
Pt 17.7342 13.755 8.60309
Pt 19.2431 15.9603 9.34079
Pt 20.0043 16.9612 11.7958
Au 20.2519 17.0746 7.27711
Pt 18.1847 14.5657 11.3198
Pt 16.607 15.6196 13.7619
Pt 17.0771 13.5683 15.6503
Au 18.9765 14.2184 13.7998
Pt 18.5269 13.7724 17.953
Pt 18.0646 14.0002 20.4982
Pt 20.6596 12.1577 18.3637
Au 18.5398 15.8884 16.1812
Pt 18.2476 9.99996 21.325
Pt 17.2662 14.913 22.989
Au 19.4954 13.4795 23.611
Pt 19.6071 18.7026 9.53146
Pt 16.2582 18.4943 13.045
Pt 18.8084 19.3085 11.8793
Pt 17.4874 17.1491 11.0711
Pt 16.5262 18.5028 15.6442
Pt 18.5343 17.3255 13.9349
Au 19.8289 21.3964 10.3865
Pt 15.6274 15.981 16.1633
Pt 14.9947 17.5137 20.0316
Pt 20.8706 14.2909 19.7476
Au 16.975 17.3396 18.0368
Pt 15.43 15.0432 21.1938
Pt 14.7698 19.8294 21.4502
Pt 19.6867 15.4913 21.9036
Au 17.536 16.7139 20.6913
Pt 15.5665 17.4356 22.5534
Au 18.1809 17.4658 23.2884
Pt 16.2544 21.1288 14.4907
Pt 16.1632 23.177 15.9085
Pt 18.4262 19.9945 14.3447
Pt 15.0109 20.7056 16.8221
Pt 16.2535 22.5618 18.4144
Pt 16.0711 19.8124 19.0649
Au 18.3994 22.9113 14.3162
Pt 14.0116 21.5402 19.4256
Pt 17.4077 19.3722 21.3609
Au 16.1993 21.9646 21.0787
Pt 13.8793 23.0216 17.2424
Pt 17.6507 20.5914 16.9489
Pt 18.8168 9.19139 9.59874
Pt 18.9586 7.44328 12.3657
Au 21.0962 8.13993 10.6051
Pt 16.3049 6.85026 12.4583
Pt 21.9793 8.95008 15.7875
Au 20.5665 6.68942 15.2948
Pt 18.8901 11.4971 7.97949
Pt 20.0012 13.3599 9.7169
Pt 20.7755 10.8169 9.74268
Pt 19.6251 9.91047 12.0157
Pt 20.3484 12.4407 12.1197
Pt 22.1864 11.6151 16.2803
Au 21.5518 12.3309 7.64394
Pt 18.0875 11.2321 13.7433
Pt 20.0766 9.96042 17.1551
Au 20.8172 7.66384 18.0592
Pt 21.8103 14.9027 8.72067
Pt 21.3514 14.8048 11.6562
Pt 22.5275 12.775 10.1812
Pt 21.5384 13.498 14.4114
Pt 20.9829 16.0211 14.2066
Pt 23.101 13.3288 17.9587
Au 23.7584 15.2482 10.6996
Pt 19.4983 12.3432 15.8512
Pt 22.353 12.0682 20.2797
Au 23.6732 14.441 20.3417
Pt 21.714 17.1427 9.83274
Pt 20.7629 18.7176 13.9729
Pt 23.5243 15.1436 13.4478
Pt 21.178 17.0303 16.5943
Pt 19.5911 16.353 18.8284
Pt 20.8861 14.4359 16.8883
Au 21.6492 19.5523 11.3351
Pt 19.9251 12.2155 21.2173
Pt 21.868 16.4319 20.8426
Au 21.8698 13.9252 22.3004
Pt 19.2807 18.6407 16.4746
Pt 20.2716 21.2729 12.9817
Pt 22.6215 17.2983 12.3184
Pt 18.7139 18.9875 19.0709
Pt 18.2926 21.5282 19.5567
Pt 21.3631 18.4255 18.9144
Au 22.7136 20.3862 13.9606
Pt 19.8529 18.0127 21.2062
Au 20.4532 20.4779 20.6847
Pt 18.6365 22.8245 17.071
Pt 20.3113 20.8141 18.0351
Pt 21.4964 8.3569 13.2667
Pt 22.3177 10.4069 11.7916
Pt 20.8886 10.8775 14.1401
Pt 23.4227 10.5531 14.1733
Pt 23.2334 12.709 12.5989
Pt 24.0026 13.0185 15.1426
Pt 23.2255 15.315 16.0173
Pt 23.1001 17.6693 14.8327
Pt 22.6057 15.9968 18.4448
Pt 21.9524 19.4742 16.4206
Pt 20.2991 21.29 15.5517
