286
Atoms. Timestep: 20248
Pt 11.5754 7.07053 19.0826
Pt 8.12196 9.86985 17.2013
Au 6.95154 11.7168 19.0438
Pt 13.6756 8.91638 19.6979
Au 13.7803 17.4415 24.0605
Pt 9.05887 13.1756 12.7481
Pt 9.58371 8.78179 15.2631
Au 6.72366 11.7269 12.5388
Pt 17.2959 9.64305 16.6207
Pt 17.8784 8.1167 20.5095
Au 8.90718 8.72294 19.8021
Pt 6.57426 14.5116 12.4586
Pt 7.22673 13.4973 14.8221
Au 10.5011 9.81987 7.34453
Pt 13.4331 8.03872 17.3301
Pt 11.2482 12.3793 20.2874
Au 6.11113 11.6514 16.4068
Pt 10.4191 22.3079 12.4091
Pt 6.51425 15.9917 15.1819
Au 6.55188 15.7712 9.85928
Pt 12.594 10.8885 18.1944
Pt 6.83251 14.3383 17.6832
Au 6.94395 15.674 20.0165
Pt 9.7178 17.6325 12.6194
Pt 14.602 12.691 11.763
Au 12.193 23.8275 16.3649
Pt 8.70107 17.9438 15.1416
Pt 11.7448 21.8392 18.1849
Au 16.4995 23.8404 15.9215
Pt 8.40286 17.9784 19.6314
Pt 7.28024 16.9826 17.4448
Pt 12.3837 9.39141 15.4228
Pt 11.1994 6.97326 16.1793
Au 19.556 14.786 5.97322
Pt 15.9435 8.45484 18.4485
Pt 15.3773 7.45624 21.0609
Au 23.2387 16.3152 17.9329
Pt 9.13715 8.92309 12.6719
Pt 11.7275 12.466 12.0398
Au 10.4949 7.03976 11.0702
Pt 9.20686 11.1389 11.3688
Pt 9.60523 11.137 18.9022
Pt 15.9848 10.0405 20.8477
Au 14.3651 19.4059 14.1663
Pt 10.8208 9.04193 17.8159
Pt 13.991 9.44903 22.5253
Pt 15.1839 6.12893 16.9341
Au 12.0561 13.8004 24.2717
Pt 20.8768 16.6285 20.7361
Au 6.1918 18.7184 15.3031
Pt 9.69861 9.19107 9.81032
Pt 10.1696 19.081 9.22161
Au 9.79253 16.0508 6.03185
Pt 11.5236 11.3301 9.68655
Pt 10.2275 17.5514 17.309
Pt 10.7769 13.5377 17.8412
Au 13.262 14.0122 13.8394
Pt 8.7605 15.5317 11.1541
Pt 11.368 15.0275 20.1869
Pt 14.762 10.6658 16.3205
Au 16.346 18.2425 15.5784
Pt 8.50795 12.6274 16.971
Pt 11.3225 9.63274 20.6147
Au 9.09979 11.1931 21.5632
Pt 13.3415 13.4547 7.4495
Pt 16.9202 15.1935 5.59946
Au 11.8725 14.4466 5.36993
Pt 9.30802 15.6544 18.762
Pt 6.88487 17.077 12.7379
Pt 8.94941 15.1976 16.3211
Au 14.8976 13.3482 4.84682
Pt 12.8636 21.0778 15.9507
Pt 9.82492 20.0638 19.1089
Pt 7.91871 19.4658 17.3895
Au 13.8999 17.4885 16.6007
Pt 10.2325 13.7283 22.2943
Pt 11.6816 11.3954 22.6962
Au 9.77144 18.9392 21.7755
Pt 11.7938 20.9832 10.5554
Pt 12.7578 18.6117 9.65493
Pt 16.4824 19.2117 7.24271
Pt 15.3001 17.8906 9.85245
Pt 17.4625 20.9767 8.93951
Pt 13.9632 18.3797 7.1991
Au 12.1465 20.4473 7.77929
Pt 11.9801 18.7246 12.1915
Pt 10.4675 22.3148 15.086
Au 9.02665 22.179 17.5008
Pt 8.10424 20.8738 15.1946
Pt 12.503 21.1892 13.4251
Pt 11.3481 7.59427 13.5645
Pt 15.1029 11.3633 6.57496
Au 12.7012 5.19494 17.2432
Pt 10.4215 13.4484 14.9185
Pt 8.24243 11.0486 14.6431
Au 8.91028 7.22244 17.5281
Pt 12.6727 13.9327 10.0443
Pt 15.1486 14.7716 9.86414
Au 12.6284 11.7776 5.36143
Pt 11.5341 9.52957 11.7689
Pt 7.5515 13.2271 10.3719
Pt 12.7148 12.3415 15.9124
Au 15.9101 14.8827 12.6655
Pt 15.3322 8.37329 15.4461
Pt 10.6945 10.8759 13.8066
Pt 19.8855 12.1035 20.5345
Au 13.3406 13.448 18.9458
Pt 17.6734 19.4225 21.9414
Pt 19.8317 8.13138 15.7374
Au 21.8558 14.0606 19.879
Pt 8.97113 16.5529 8.60759
Pt 17.1308 11.1361 8.09608
Au 19.3232 19.6434 7.45181
Pt 7.63082 19.4608 13.0583
Pt 10.1067 13.6042 10.062
Pt 8.9242 11.5331 8.79194
Au 12.6084 15.0305 16.4989
Pt 13.3952 11.1252 13.6297
Pt 15.623 12.531 14.4755
Pt 17.5427 13.127 19.7803
Au 20.6714 17.0569 7.37215
Pt 10.4695 11.1147 16.3572
Pt 10.2772 20.1201 16.4756
Pt 17.4863 6.90815 16.2627
Au 15.5294 14.9739 19.393
Pt 16.2582 10.9405 23.2577
Pt 15.5272 12.7986 21.4108
Pt 18.4764 10.2619 21.8119
Au 17.4336 14.9662 17.1962
Pt 13.5556 11.2789 20.7815
Au 12.6044 7.3371 21.569
Pt 14.7821 20.3683 8.84092
Pt 10.8394 12.5301 7.32466
Pt 20.6026 17.0185 13.8598
Pt 11.0951 14.9923 8.05684
Pt 19.9819 16.8325 9.98996
Pt 8.68288 15.5064 13.7794
Au 21.3858 14.5586 8.36669
Pt 10.9957 16.7052 10.2821
Pt 9.32324 16.1584 21.406
Pt 18.1975 17.3381 6.45371
Au 13.4298 16.7317 13.9139
Pt 10.9101 16.2068 14.8544
Pt 13.1545 16.3023 18.8251
Pt 14.0525 16.3602 21.4147
Au 11.8858 18.6141 15.0982
Pt 12.2384 19.2101 17.9778
Pt 11.7114 16.0072 22.6787
Au 11.985 24.0586 13.6319
Pt 18.4528 15.3824 8.27949
Pt 11.3644 17.6144 7.53057
Pt 19.8966 20.3543 12.8889
Pt 14.1388 20.0772 11.4052
Pt 13.5258 22.8342 11.8123
Pt 15.6158 21.5072 12.9889
Au 12.4846 17.1941 5.21283
Pt 10.1139 20.0215 13.7691
Pt 14.7686 19.9319 17.5061
Au 16.3452 23.9494 12.8861
Pt 15.7196 22.271 10.4674
Pt 18.0699 21.9574 11.6512
Pt 21.2239 11.901 9.28784
Pt 15.5727 8.21039 11.1264
Au 19.6507 10.1368 7.87441
Pt 17.9957 7.5098 11.7535
Pt 13.4925 6.55684 14.8802
Au 17.5796 12.5282 5.65221
Pt 11.1572 15.0677 12.3968
Pt 12.9607 10.642 7.73639
Au 8.42129 14.0702 7.8478
Pt 8.09262 18.0298 10.5699
Pt 13.802 8.60759 13.2623
Pt 18.9888 15.149 12.4795
Au 16.9952 6.06061 18.984
Pt 13.7827 10.2505 10.9268
Pt 18.877 8.08537 18.1579
Pt 21.6529 18.3173 18.9384
Au 15.5326 15.5514 15.2685
Pt 17.2262 13.312 9.83069
Pt 14.5232 14.9243 23.5398
Au 21.6228 8.8514 17.6691
Pt 22.0753 13.1617 11.3619
Pt 9.42029 20.1781 11.3174
Pt 16.0646 16.4703 7.86614
Pt 16.0893 13.7401 7.5136
Pt 15.6675 17.5231 5.42585
Pt 22.7102 15.6458 15.3637
Au 23.7433 14.4927 13.0793
Pt 12.2637 8.67499 9.28305
Pt 18.6364 9.97893 12.2478
Pt 8.73335 13.5099 20.0002
Au 13.506 16.332 11.3347
Pt 17.9955 13.8931 14.6458
Pt 16.764 14.9751 21.8843
Pt 20.5446 10.2026 14.3828
Au 15.0504 13.4907 16.9154
Pt 20.6036 15.9008 18.3183
Pt 14.0125 12.111 23.5295
Au 18.3772 15.1305 23.9754
Pt 23.136 17.1751 13.2312
Pt 17.9164 18.1325 9.12823
Pt 16.759 19.7213 11.0529
Pt 14.2458 15.5277 6.15792
Pt 14.2556 23.0473 14.6105
Pt 18.0207 16.5999 14.4122
Au 13.3659 22.5692 9.15484
Pt 18.7227 17.9558 12.1152
Pt 12.4186 18.4126 22.0735
Pt 22.0452 13.8329 17.0892
Au 15.8771 17.6141 12.6027
Pt 16.4061 17.3274 20.7446
Pt 11.9469 20.3175 20.4803
Pt 18.341 15.7141 19.6356
Au 16.78 8.41126 23.0322
Pt 13.0636 13.8086 21.7181
Au 20.852 22.4193 17.8075
Pt 19.4132 19.936 10.3654
Pt 18.4376 22.1283 16.8375
Pt 13.3764 16.1791 8.53851
Pt 14.3485 22.668 17.3532
Pt 18.7349 20.9825 19.6776
Pt 13.9593 18.5591 19.7977
Au 21.4953 19.0799 9.0352
Pt 14.1583 21.3075 19.7214
Pt 16.2884 17.1173 23.3114
Au 16.3602 13.3492 24.4379
Pt 16.0248 21.2045 15.64
Pt 11.1201 17.6458 19.8942
Pt 15.0711 9.36157 8.71923
Pt 16.3717 10.7414 10.7155
Au 20.4327 7.92727 12.9487
Pt 13.1315 7.29199 11.2799
Pt 18.7066 17.0208 22.1058
Au 18.5919 6.05894 13.9787
Pt 19.7499 13.9898 10.3575
Pt 19.816 12.4673 12.7688
Pt 19.1225 12.8812 7.87291
Pt 15.9084 6.88089 13.4312
Pt 15.9186 10.1327 13.23
Pt 17.9439 10.5663 19.1358
Au 20.2309 8.70561 10.2181
Pt 17.4912 12.2598 16.9736
Pt 19.6328 14.5135 21.5347
Au 14.0659 5.99817 19.4005
Pt 17.3289 12.592 12.3158
Pt 22.3365 12.1155 13.7728
Pt 17.7101 8.91077 9.50833
Pt 20.2259 12.6092 15.5859
Pt 21.2276 17.7013 16.3979
Pt 20.2185 9.58402 19.8344
Au 22.6691 16.7507 9.52323
Pt 18.0569 12.7086 22.4723
Pt 19.6225 13.3879 18.1819
Au 22.5931 20.1791 16.9552
Pt 21.8934 19.3505 14.3183
Pt 21.6248 15.7026 11.6344
Pt 21.1645 14.3978 13.8259
Pt 18.0821 22.2255 14.2826
Pt 15.4229 11.4264 18.7553
Pt 17.362 16.0376 10.6412
Au 21.526 20.8228 19.763
Pt 19.9455 15.2728 15.9314
Pt 21.5466 11.5848 18.5845
Au 22.5014 11.0688 16.1927
Pt 19.2517 19.0732 15.1344
Pt 20.5225 21.3684 15.3519
Pt 20.0411 19.853 17.5975
Pt 17.508 19.8001 17.3941
Pt 14.9678 19.2525 22.0792
Pt 20.2137 19.1427 21.2649
Au 20.2697 22.903 13.0659
Pt 18.7213 18.2896 19.4891
Au 16.3846 21.7479 21.3332
Pt 16.1504 17.3927 18.1749
Pt 16.3276 19.7057 19.7127
Pt 17.8123 8.57127 14.205
Pt 14.6557 12.0954 9.18964
Pt 18.063 11.192 14.6138
Pt 18.9692 11.341 10.1999
Pt 21.2666 10.5749 11.7447
Pt 19.7037 10.567 17.0879
Pt 23.6243 17.9955 15.7269
Pt 21.3756 18.4606 11.7077
Pt 18.6632 17.3627 17.0658
Pt 17.3815 19.7606 13.5922
Pt 16.5005 22.0974 18.5532
