286
Atoms. Timestep: 20335
Pt 11.6756 12.525 14.3742
Pt 6.96306 13.2742 12.6213
Au 15.383 15.3112 23.9112
Pt 7.01459 19.5691 15.028
Au 8.85489 9.0208 18.7895
Pt 19.8897 17.025 18.3772
Pt 13.8566 14.2845 21.9013
Au 12.1826 6.2614 18.6855
Pt 13.0453 15.6827 19.6267
Pt 18.0609 17.4777 13.5049
Au 14.8209 18.1367 23.7855
Pt 20.6279 17.6581 14.2718
Pt 9.21038 11.9568 11.558
Au 15.3533 6.42201 9.39723
Pt 12.1141 17.8396 22.1402
Pt 9.40618 16.9867 17.6863
Au 19.5974 18.7962 7.88557
Pt 15.5858 16.9858 7.79471
Pt 11.4846 13.2118 22.6627
Au 14.6834 9.41104 23.2709
Pt 20.0339 15.4217 13.2649
Pt 21.8465 11.3962 10.4807
Au 10.7391 11.8175 6.90693
Pt 19.7776 11.9534 9.15262
Pt 9.13531 13.1752 13.9368
Au 7.942 20.5328 9.69894
Pt 21.3732 9.08649 11.7767
Pt 15.6844 9.99145 20.7862
Au 19.9092 22.6332 10.8984
Pt 20.1819 9.13937 14.0762
Pt 13.8228 7.36966 14.467
Pt 7.51591 10.5852 13.2323
Pt 7.68938 11.1159 17.7527
Au 6.31643 17.6964 13.2547
Pt 11.1052 8.49146 12.0788
Pt 7.6122 13.48 9.91889
Au 8.53265 8.06253 13.4506
Pt 9.64307 13.4086 20.7214
Pt 15.6089 21.583 8.67289
Au 21.7554 20.6579 11.5958
Pt 12.2166 13.2061 20.0757
Pt 12.115 12.3784 17.341
Pt 14.8957 19.3102 6.92686
Au 16.888 12.9385 16.4563
Pt 19.687 13.7891 21.2955
Pt 13.0371 8.99379 21.2485
Pt 16.0776 14.4279 9.08175
Au 6.03217 13.2344 17.2942
Pt 11.4013 23.9659 17.0594
Au 21.5582 6.91214 13.3239
Pt 13.2972 21.0579 19.6716
Pt 12.4989 20.5859 10.7161
Au 13.1698 12.6185 5.66885
Pt 11.0346 15.1541 13.6027
Pt 11.2362 15.1385 9.78106
Pt 17.9715 10.4551 14.3011
Au 12.2323 14.7272 16.147
Pt 7.94923 20.5218 12.5023
Pt 13.9528 19.745 21.7856
Pt 15.5594 20.6146 10.998
Au 15.1969 15.068 15.8161
Pt 19.4627 19.7454 10.303
Pt 8.92238 21.2905 14.8393
Au 19.8582 9.80334 21.7528
Pt 18.867 16.6778 16.0203
Pt 15.3946 16.606 10.4286
Au 21.7722 18.4371 9.765
Pt 8.73971 15.8482 19.9364
Pt 15.7284 15.106 20.0806
Pt 11.1679 12.2545 9.57472
Au 11.6443 5.55208 15.5794
Pt 10.5159 17.1379 15.2099
Pt 21.8847 13.435 17.1111
Pt 13.8531 19.3766 17.1197
Au 14.2034 12.4341 15.5766
Pt 13.5455 21.1134 12.9495
Pt 17.4751 15.2022 7.09248
Au 15.8741 11.9532 23.3797
Pt 10.8119 20.8557 13.0678
Pt 17.1701 18.4581 11.2256
Pt 14.1528 8.56906 18.9576
Pt 22.6971 13.5487 11.7248
Pt 18.4413 8.78196 11.8837
Pt 18.3382 15.7902 20.2547
Au 23.0891 9.24277 13.8782
Pt 12.6728 7.89068 16.7284
Pt 20.4335 21.1726 16.1014
Au 6.71531 11.1295 10.7783
Pt 13.9919 11.7424 12.5308
Pt 18.9342 18.2946 20.5777
Pt 14.2519 18.5555 11.9317
Pt 9.94189 22.083 10.777
Au 9.14048 23.8067 15.7351
Pt 8.43708 13.4975 18.4123
Pt 19.3933 14.0584 16.0164
Au 15.6078 21.9016 20.7447
Pt 14.1856 22.7944 10.8606
Pt 14.7456 6.3755 12.1275
Au 16.0796 9.77956 7.78981
Pt 11.6897 22.416 14.9078
Pt 16.285 20.2334 16.2621
Pt 16.9186 16.9051 22.3319
Au 16.2345 17.6042 15.5942
Pt 20.4085 11.4346 15.4022
Pt 13.0048 7.53784 10.4956
Pt 13.2586 11.0078 19.4887
Au 18.2697 21.6664 8.90395
Pt 7.69269 17.0813 15.5477
Pt 13.1487 16.8394 14.7042
Au 13.7447 8.53766 8.19152
Pt 16.7579 5.79629 17.1828
Pt 13.5211 13.5559 9.24319
Au 6.60895 15.6114 11.3085
Pt 11.3956 19.5919 18.1558
Pt 10.0112 19.4801 11.1075
Pt 18.0264 10.3298 19.3324
Au 8.19916 11.2135 20.4223
Pt 14.3392 21.6942 15.3335
Pt 19.0292 7.03639 18.0332
Pt 20.4048 7.11556 15.774
Au 16.8214 23.3285 10.564
Pt 15.5557 19.8105 18.9995
Pt 19.9721 14.4351 18.6194
Pt 18.8635 6.74596 13.501
Au 13.8397 4.61002 13.9995
Pt 16.947 19.3384 8.74245
Pt 23.0011 11.5377 15.5624
Pt 14.4028 16.8547 21.6259
Au 16.2523 12.8254 13.6687
Pt 10.0285 21.6426 17.169
Au 8.771 11.189 8.88402
Pt 14.6532 14.7473 6.80705
Pt 13.8777 8.98722 12.4894
Pt 20.3965 16.3592 8.76268
Pt 17.5169 15.0461 14.3807
Pt 12.2311 18.6973 7.59229
Pt 14.1668 19.1547 14.5703
Au 11.0011 9.42418 9.28582
Pt 15.2532 12.3416 7.23333
Pt 19.4422 9.44505 16.8855
Pt 16.4652 23.1692 15.6472
Au 14.394 13.7481 18.1643
Pt 17.6735 10.4617 9.78159
Pt 17.5318 12.8618 11.0316
Pt 10.7688 16.4833 7.62166
Au 24.2037 13.1323 13.815
Pt 9.02896 19.3134 19.139
Pt 17.7108 15.4601 11.5615
Au 7.45361 21.0569 17.2695
Pt 13.3321 16.2333 8.71596
Pt 9.48387 23.1791 13.177
Pt 16.9627 10.1565 16.6935
Pt 11.1932 19.8378 20.7703
Pt 16.3635 8.14975 13.3964
Pt 13.8406 23.7602 13.7711
Au 13.9692 24.248 16.4113
Pt 15.3595 11.7432 9.81741
Pt 9.40631 14.407 11.4831
Au 17.3347 9.33893 22.8068
Pt 15.3637 12.5797 20.7255
Pt 21.331 18.5713 16.6957
Pt 6.86939 14.5516 15.0727
Pt 15.5979 8.74605 10.4999
Au 11.3882 24.925 14.3923
Pt 19.4748 11.069 11.8021
Pt 13.2244 21.0476 8.21414
Au 12.647 15.7831 23.7706
Pt 11.8945 17.987 10.0484
Pt 22.2669 18.1115 12.3914
Au 19.3131 16.0144 22.7717
Pt 18.8273 14.4463 9.25853
Pt 11.4996 8.96567 19.0546
Pt 18.9865 12.8734 13.643
Au 19.2327 23.5536 15.6438
Pt 18.818 19.246 15.6064
Pt 12.0029 14.2517 7.26384
Pt 14.3118 18.8931 9.35014
Au 15.4834 16.4511 13.1454
Pt 20.1301 13.6163 11.4269
Pt 17.8114 20.601 19.7672
Au 21.7429 18.5153 19.4973
Pt 21.3471 15.8539 16.0491
Pt 19.1528 11.99 17.5858
Pt 12.1778 17.1696 17.324
Pt 10.9485 17.3638 19.6912
Pt 19.7189 17.308 11.3183
Pt 16.4101 10.5963 12.132
Au 15.5361 7.40156 21.2771
Pt 9.95151 10.4749 13.9744
Pt 21.856 19.9532 14.3051
Pt 7.16262 15.6206 17.6421
Au 14.8444 16.8223 17.8348
Pt 12.9418 16.1188 11.6686
Pt 16.3632 17.5882 19.9019
Pt 23.1157 17.6075 15.0999
Au 23.8475 14.8893 15.8828
Pt 17.5834 12.4861 8.02572
Pt 8.51411 9.46542 15.8674
Au 13.3041 16.8894 6.04415
Pt 20.3982 9.01762 19.2144
Pt 11.6326 19.7588 15.4101
Pt 17.2264 6.46513 11.4689
Pt 11.899 23.1807 12.1499
Pt 11.8561 18.4284 12.9605
Pt 15.0383 14.0738 11.4246
Au 13.5986 13.1819 24.3304
Pt 9.54035 13.8619 8.20705
Pt 20.1807 11.698 19.9554
Pt 15.3231 7.9949 16.4351
Au 13.6865 14.341 13.6821
Pt 15.2249 10.1398 14.6278
Pt 8.65137 15.9951 9.47875
Pt 8.96744 9.5105 11.2079
Au 17.356 5.72319 19.8038
Pt 12.5608 9.98117 14.4811
Au 19.9721 6.84288 10.8859
Pt 15.6818 11.3569 18.4717
Pt 18.2317 8.06349 20.6203
Pt 20.0164 9.34907 9.64695
Pt 15.3483 22.2017 17.9338
Pt 17.8177 7.81576 15.6566
Pt 19.5814 19.5943 12.9268
Au 22.5854 16.0441 18.3557
Pt 9.25342 19.1978 16.4204
Pt 10.9058 7.94698 14.6344
Au 10.9054 22.2944 19.5338
Pt 21.6048 13.6365 14.4215
Pt 17.6545 13.2093 19.3949
Pt 10.9687 9.98507 16.6374
Pt 9.34481 14.8102 16.076
Au 22.167 13.521 19.8196
Pt 21.4806 13.9192 9.26079
Pt 13.4317 11.5102 22.1555
Au 6.88379 18.3832 17.775
Pt 17.9024 11.6856 21.6031
Pt 13.7705 10.2262 16.9518
Pt 10.766 14.7249 18.4567
Pt 21.6595 11.009 17.9461
Pt 7.812 18.0623 11.0893
Pt 21.7908 11.4351 13.0998
Au 18.7219 5.09111 15.6283
Pt 11.022 10.9256 21.1772
Pt 13.3257 10.2528 10.3
Au 9.347 17.9062 21.6529
Pt 12.1525 6.35077 12.8429
Pt 14.1469 5.59006 16.4876
Pt 12.0696 13.513 11.6676
Pt 13.0906 11.2126 7.95851
Pt 12.6907 21.7706 17.2837
Pt 16.4849 19.4183 21.7079
Au 11.9841 23.0821 9.36477
Pt 15.9293 22.4114 13.1062
Pt 10.7073 20.6049 8.74332
Au 13.3312 23.692 19.0917
Pt 7.18578 11.9505 15.298
Pt 10.1269 16.8748 11.6157
Pt 17.6299 18.4163 17.8543
Pt 16.7136 8.20512 18.5886
Pt 11.5432 10.9516 11.9782
Pt 9.62502 12.1824 16.286
Au 7.53016 22.7671 11.4003
Pt 14.8613 6.16724 18.9131
Pt 9.12405 18.5719 13.6088
Au 17.5485 17.9177 6.42602
Pt 20.3541 22.0604 13.5161
Pt 17.1144 14.1807 22.1534
Pt 19.7648 19.8319 18.3189
Pt 18.0733 21.696 17.3503
Pt 10.2603 11.4606 18.8107
Pt 21.7809 15.8625 11.001
Au 18.2671 23.7854 13.0273
Pt 9.49201 18.3361 8.84161
Au 21.1145 16.1074 20.7234
Pt 17.9403 21.2414 11.8102
Pt 16.4462 19.6631 13.498
Pt 11.0858 15.4811 21.4879
Pt 16.2281 5.8442 14.5489
Pt 17.3333 15.4609 17.7911
Pt 8.38922 15.8725 13.3798
Pt 22.7921 15.6853 13.4425
Pt 18.0678 21.4406 14.5318
Pt 17.7695 7.89304 9.35334
Pt 13.4231 18.3558 19.663
Pt 10.1271 7.47532 17.0579
Pt 21.9254 9.1492 16.2127
Pt 17.9005 16.9219 9.18189
