286
Atoms. Timestep: 20183
Pt 9.86044 11.2464 20.9189
Pt 11.9328 7.49329 18.1735
Au 10.5141 6.2287 16.3651
Pt 8.39398 10.3586 18.9579
Au 10.3282 8.48961 20.4327
Pt 9.89082 13.5492 16.0655
Pt 9.24094 8.26362 15.128
Au 6.00927 10.864 13.6013
Pt 11.3751 10.0823 18.6985
Pt 12.2192 10.3828 21.4749
Au 7.08827 9.84123 16.0477
Pt 7.34485 14.5551 13.4385
Pt 9.47158 8.34836 17.7495
Au 5.23998 13.2434 12.462
Pt 9.50425 10.7302 16.5737
Pt 7.73108 12.8541 19.9693
Au 5.48069 13.2233 15.2558
Pt 9.16616 15.6467 11.7035
Pt 6.43293 14.4948 18.3984
Au 5.01368 15.7305 13.6943
Pt 9.60744 15.7303 14.3779
Pt 7.29908 17.1613 14.7932
Au 5.11591 15.7545 16.327
Pt 8.50481 15.8035 9.14421
Pt 10.7833 17.3302 10.6304
Au 6.70878 19.2315 12.8985
Pt 8.31331 18.133 10.324
Pt 8.78695 20.2474 14.3271
Au 9.97626 22.4468 13.3606
Pt 6.76494 16.7304 11.9765
Pt 10.4747 19.6254 9.54219
Pt 11.5106 9.12009 15.9578
Pt 13.2878 6.67982 16.0733
Au 9.16334 7.56989 12.53
Pt 14.9156 11.9055 17.0182
Pt 14.7665 7.1291 18.2194
Au 20.1381 10.3458 21.4681
Pt 8.61268 10.09 13.496
Pt 11.3631 9.31671 13.0035
Au 7.75037 9.52572 11.0575
Pt 10.7115 11.4269 14.4537
Pt 9.85633 12.5191 18.5228
Pt 16.7049 12.8283 18.7804
Au 12.2645 16.4529 15.7525
Pt 12.0575 12.4134 19.8054
Pt 11.9191 13.0614 22.3955
Pt 14.191 10.7327 19.3075
Au 13.4691 11.2996 23.7617
Pt 13.2889 8.42453 20.0636
Au 12.4244 15.762 23.0958
Pt 7.65163 12.1231 11.7887
Pt 9.1055 11.0613 9.3084
Au 7.78105 13.2645 8.19629
Pt 7.96126 12.275 14.7407
Pt 11.6589 16.7834 13.0401
Pt 12.5105 12.191 12.5313
Au 15.3771 12.9409 14.0978
Pt 7.6214 14.7864 16.0736
Pt 9.0619 14.9937 18.6599
Pt 12.1273 14.9344 20.4093
Au 11.6649 14.5506 17.7764
Pt 7.42903 12.3416 17.3276
Pt 9.82387 13.9028 21.0091
Au 7.51801 15.6108 20.6768
Pt 11.3296 15.2025 9.10091
Pt 12.0901 16.0833 6.61483
Au 11.9453 18.9344 6.42475
Pt 6.97181 14.3976 10.7128
Pt 11.6579 14.5127 11.6049
Pt 9.46093 13.5078 10.2116
Au 15.371 17.9981 9.33594
Pt 13.1577 18.6872 14.1781
Pt 9.02373 17.9482 12.8829
Pt 9.57384 16.639 16.7977
Au 15.1055 17.8271 12.579
Pt 7.05557 16.9019 17.6281
Pt 8.75571 17.698 19.2838
Au 8.48217 20.3124 18.9115
Pt 10.1512 17.4659 7.96954
Pt 12.6886 20.7729 8.97997
Pt 14.3875 19.6752 7.43951
Pt 12.9619 18.9735 10.9292
Pt 8.92368 20.3737 11.6247
Pt 15.1662 20.4401 10.3352
Au 14.7801 22.2809 8.19333
Pt 11.0957 19.5235 12.6376
Pt 8.25279 19.0227 16.5671
Au 9.64395 21.8039 16.7578
Pt 11.3781 21.5897 11.165
Pt 13.704 20.6969 12.555
Pt 11.5329 7.01414 14.0682
Pt 12.7092 7.88356 9.43032
Au 11.4837 6.51772 11.4618
Pt 13.2894 11.3349 14.8369
Pt 17.4282 7.32872 17.9308
Au 15.8566 5.28552 16.4369
Pt 10.1902 11.2057 11.6144
Pt 10.3702 12.4315 7.5522
Au 12.3417 11.0728 6.13069
Pt 10.3645 8.82843 10.463
Pt 9.67386 13.3783 13.0093
Pt 15.7232 10.3545 15.14
Au 16.9444 13.3141 11.8961
Pt 15.7461 7.79532 15.8444
Pt 13.7765 9.35532 17.1528
Pt 18.5464 8.87851 19.7719
Au 14.0923 15.2145 13.2274
Pt 16.0017 8.37705 20.1232
Pt 14.7072 9.69422 21.9364
Au 17.6174 9.36598 22.3141
Pt 12.6833 13.5483 7.26096
Pt 17.2698 13.4567 6.70688
Au 17.3114 16.0149 5.45875
Pt 9.78868 14.8668 7.1265
Pt 11.8088 12.559 9.73089
Pt 13.8262 11.4003 8.69031
Au 14.2467 13.4112 10.8805
Pt 15.0097 9.26792 9.93004
Pt 11.8561 14.0556 14.3576
Pt 16.4141 9.77865 17.8841
Au 15.9982 15.6298 10.6985
Pt 12.1261 11.9178 17.0439
Pt 10.5948 19.0694 20.5362
Pt 16.5888 10.967 20.5056
Au 16.2934 15.4567 18.7996
Pt 14.2524 12.3788 21.2991
Pt 10.1681 16.5083 21.2383
Pt 16.1277 11.5593 23.0627
Au 13.8355 16.4009 18.174
Pt 14.6426 17.6114 22.7671
Au 11.8642 18.651 22.9777
Pt 16.7592 18.3431 6.72615
Pt 16.7225 20.4565 8.21323
Pt 18.1279 18.056 8.85283
Pt 12.6576 17.8793 8.63972
Pt 17.4543 18.0616 11.3447
Pt 13.9295 15.4913 8.5344
Au 19.3426 20.185 7.8618
Pt 13.362 16.3956 10.8775
Pt 10.4635 18.329 15.0761
Pt 14.9001 10.7961 12.3156
Au 15.2614 16.6575 15.3218
Pt 11.278 17.0431 18.7685
Pt 10.6794 19.284 17.5584
Pt 12.947 19.468 19.2531
Au 13.492 18.7824 16.771
Pt 10.8798 21.3718 19.3278
Pt 12.7591 17.4295 20.9045
Au 11.8551 21.1576 21.7397
Pt 17.9608 20.6172 10.405
Pt 13.7561 22.6464 10.633
Pt 18.1084 22.3321 12.7687
Pt 15.3627 22.8017 12.6755
Pt 11.9178 23.2623 15.5959
Pt 13.8589 21.4028 14.9818
Au 16.5576 22.8592 10.2633
Pt 11.3709 20.7645 14.9224
Pt 12.4389 21.2968 17.2813
Au 11.522 23.6729 18.2482
Pt 12.6131 22.9803 13.0993
Pt 14.4883 23.9465 14.9044
Pt 16.1467 10.5436 7.5621
Pt 17.9337 9.00283 15.0211
Au 15.1631 7.00709 8.51713
Pt 14.1081 6.27751 13.5831
Pt 18.3252 6.53926 15.6604
Au 14.0092 5.74639 10.7571
Pt 14.7525 12.1351 6.21486
Pt 13.8734 9.18717 7.43549
Au 14.8301 14.7483 5.81043
Pt 11.4505 10.0657 8.39497
Pt 12.6504 10.2523 10.7818
Pt 16.3628 11.5133 9.99844
Au 21.1328 11.4214 8.746
Pt 13.6148 8.80165 14.3951
Pt 19.0596 9.52299 17.2677
Pt 21.073 12.5563 19.8111
Au 16.5115 14.2117 16.3069
Pt 15.9899 8.47758 13.2309
Pt 18.8205 11.436 19.2736
Au 23.0969 11.4508 18.1049
Pt 20.3024 13.9381 9.07944
Pt 14.4451 17.2438 6.60152
Pt 16.5062 15.8918 7.97611
Pt 15.3561 13.4135 8.38573
Pt 18.9977 15.4445 7.51256
Pt 20.0024 17.3557 12.0501
Au 19.3701 17.8256 6.44399
Pt 17.4151 9.49207 11.2788
Pt 21.827 12.9943 10.8794
Pt 14.1803 13.6843 18.9432
Au 17.1402 15.6581 13.2967
Pt 19.0595 14.0034 17.5688
Pt 16.4784 13.7554 21.4718
Pt 18.3322 13.4735 14.4084
Au 13.8285 14.1959 16.111
Pt 18.5646 12.2815 22.0645
Pt 14.4434 13.8304 23.4255
Au 21.1072 14.2607 21.8606
Pt 20.2309 19.2449 10.1975
Pt 16.4352 20.2769 12.7053
Pt 19.1234 19.8021 12.5836
Pt 18.7242 15.9299 10.2417
Pt 15.7575 19.3633 15.1133
Pt 17.908 17.9876 14.1031
Au 20.3632 21.7802 11.1913
Pt 19.563 14.3298 12.0642
Pt 15.2182 17.8114 20.0475
Pt 20.6089 13.7737 15.4156
Au 16.3164 18.0962 17.4794
Pt 14.5547 15.3978 21.1937
Pt 14.0655 19.8387 21.6233
Pt 18.6245 14.9006 22.7838
Au 17.1244 13.485 24.4066
Pt 16.1999 15.7603 23.4505
Au 18.2317 17.6206 23.3564
Pt 16.3962 21.9385 14.9306
Pt 16.5825 23.664 16.7565
Pt 18.3933 20.3379 15.0421
Pt 15.068 21.0978 17.2131
Pt 16.1539 22.8037 19.1009
Pt 15.6807 20.2413 19.5052
Au 17.0226 24.5065 14.1129
Pt 13.5877 22.0211 19.6982
Pt 16.7221 19.26 21.8739
Au 15.6729 21.9692 21.6458
Pt 14.0335 23.4889 17.4237
Pt 17.5729 20.7127 17.5241
Pt 16.2572 7.0695 11.0914
Pt 16.5496 5.97259 13.878
Au 18.8612 6.999 10.3192
Pt 13.6665 8.14879 11.8838
Pt 21.7153 9.57186 16.4631
Au 20.269 7.2697 17.4859
Pt 18.4994 11.4508 8.26523
Pt 17.7563 13.7281 9.33595
Pt 17.3228 8.66811 8.83984
Pt 18.4867 7.35556 12.9117
Pt 19.5754 9.73948 12.6619
Pt 22.4815 12.0278 15.3364
Au 21.085 7.76564 11.9255
Pt 17.5353 11.1584 13.3659
Pt 20.5458 11.8222 17.3387
Au 21.189 9.62319 19.0987
Pt 20.6341 17.068 8.83376
Pt 21.5678 15.6028 10.8136
Pt 19.1527 11.8803 10.8467
Pt 22.81 15.2465 15.3776
Pt 20.092 15.971 14.192
Pt 22.237 13.9009 17.4664
Au 23.455 11.916 12.7935
Pt 17.7301 11.7253 16.4667
Pt 20.9099 15.2193 19.2341
Au 22.5407 16.5855 20.8598
Pt 21.7402 19.588 12.5465
Pt 20.5403 18.6257 14.7424
Pt 22.1859 14.3382 13.1206
Pt 21.7538 19.0813 17.2558
Pt 18.6909 16.4827 18.6653
Pt 18.1439 16.2354 16.0378
Au 22.5836 18.0105 10.5709
Pt 18.7201 14.1775 20.206
Pt 19.8073 16.6876 21.2828
Au 23.3039 14.1612 19.8651
Pt 19.1009 18.6323 17.0319
Pt 20.5307 21.5607 13.9319
Pt 22.369 17.0117 13.1214
Pt 17.9886 18.7519 19.6064
Pt 17.9748 21.3137 20.3657
Pt 20.8103 17.9851 19.3126
Au 22.6758 20.3733 15.0244
Pt 17.1865 16.5256 21.1286
Au 19.6281 19.4101 21.5929
Pt 18.7644 22.7811 18.1472
Pt 20.0142 20.4638 18.9786
Pt 20.3515 8.04658 14.7672
Pt 19.6595 9.46846 9.85047
Pt 19.8173 10.8892 15.0498
Pt 21.6872 10.4101 11.2355
Pt 20.6714 12.191 13.1068
Pt 22.0335 9.83335 13.7977
Pt 22.8833 16.5518 18.0421
Pt 22.9415 17.741 15.5121
Pt 20.723 16.4279 16.724
Pt 20.4055 21.1774 16.5352
Pt 18.7908 22.9479 15.4623
