286
Atoms. Timestep: 20329
Pt 18.3707 10.5108 20.6308
Pt 7.354 10.6847 10.2045
Au 22.3785 17.3595 10.0661
Pt 11.5476 7.95389 12.7328
Au 20.0994 10.3638 8.76762
Pt 18.5626 17.327 14.6093
Pt 12.7921 15.1348 10.9968
Au 19.5699 13.6814 22.649
Pt 12.3875 16.9798 6.93676
Pt 13.114 13.8999 18.3097
Au 18.4097 5.80256 16.3399
Pt 9.58467 9.02317 10.6116
Pt 6.38499 14.3101 13.648
Au 6.93745 8.90589 12.0782
Pt 20.7079 10.9519 18.3267
Pt 15.7891 17.2871 22.9911
Au 12.9079 6.38778 8.83447
Pt 22.1223 14.0602 14.1867
Pt 12.6557 21.3434 14.1896
Au 18.1757 18.228 7.76268
Pt 13.2003 6.12207 11.5291
Pt 18.534 18.7864 12.2953
Au 11.3842 7.18492 18.102
Pt 15.5391 12.6211 17.275
Pt 16.949 8.64202 13.3008
Au 9.79448 10.6981 21.2615
Pt 17.0229 16.3922 12.3843
Pt 16.945 20.9835 17.0946
Au 5.58448 14.7157 17.1433
Pt 19.443 11.9752 11.3915
Pt 17.6556 19.7463 9.96913
Pt 16.3165 13.6797 8.47854
Pt 17.2594 14.9374 23.0881
Au 10.1005 21.8452 12.9361
Pt 10.8707 8.12709 8.44286
Pt 13.0742 13.5216 23.1269
Au 14.6799 10.4452 6.15704
Pt 22.5416 15.912 12.2333
Pt 19.9325 18.3471 10.0335
Au 7.35779 15.8436 8.70476
Pt 11.3821 12.4745 19.8211
Pt 14.9495 19.613 18.2654
Pt 21.6144 11.4569 12.9372
Au 8.95672 10.0337 8.03995
Pt 8.81099 10.8756 12.4044
Pt 21.5299 12.452 16.1293
Pt 13.7015 17.2706 12.3617
Au 20.5918 7.25098 15.0248
Pt 7.90439 14.4334 16.0825
Au 8.40856 21.804 16.0967
Pt 17.9074 9.64614 18.1749
Pt 6.28109 16.4579 15.1418
Au 10.5533 6.39631 10.6626
Pt 13.5392 6.45615 14.1537
Pt 9.56939 16.2954 16.9205
Pt 12.4386 8.42818 10.4595
Au 20.8843 23.1613 16.9872
Pt 9.57615 14.5 7.50094
Pt 21.0132 15.8201 18.9081
Pt 9.05648 17.4521 19.2957
Au 12.5602 12.1136 5.27397
Pt 15.0504 10.7545 13.2512
Pt 16.7558 15.4812 14.9267
Au 15.9521 20.0694 22.927
Pt 12.3942 23.21 17.7784
Pt 13.3527 13.7066 15.5841
Au 22.8282 9.86605 9.25257
Pt 10.0796 9.66661 14.3741
Pt 23.4109 13.2572 12.158
Pt 18.0809 8.40809 15.6651
Au 22.6719 14.5833 9.83918
Pt 16.6687 20.7835 12.426
Pt 14.2797 12.6138 20.8337
Pt 15.7218 6.16375 12.4966
Au 15.4805 19.2958 8.31111
Pt 10.4606 20.0397 15.1659
Pt 11.3384 12.0144 14.3749
Au 18.1136 11.5261 23.2715
Pt 12.7607 18.481 19.5956
Pt 10.3582 19.6966 19.6616
Pt 9.11537 11.7859 16.0136
Pt 15.2122 15.279 17.0838
Pt 16.0967 6.7059 15.1157
Pt 14.9037 14.7557 12.7367
Au 23.8188 10.5272 11.7892
Pt 10.982 17.2164 14.4576
Pt 16.2517 18.0511 16.1652
Au 11.7557 9.80564 6.47782
Pt 15.9765 16.6121 7.95457
Pt 8.60129 15.8683 14.0173
Pt 13.742 17.6514 17.2505
Pt 18.8662 14.7139 19.9832
Au 17.3105 23.73 12.5452
Pt 8.55851 19.4709 17.5501
Pt 11.5394 11.845 17.0657
Au 24.0782 13.5796 16.2288
Pt 9.59405 11.868 10.0086
Pt 20.0794 17.0202 16.7483
Au 21.7006 21.2943 19.1153
Pt 6.87902 18.0375 13.1723
Pt 13.9499 9.79651 20.7578
Pt 9.26928 14.5495 10.0447
Au 7.87866 20.3056 11.3097
Pt 12.656 9.25948 16.8972
Pt 21.9092 12.0448 10.322
Pt 19.7827 12.5107 14.1851
Au 21.5868 14.6464 21.121
Pt 13.5425 11.2447 18.6057
Pt 8.11643 20.2837 13.9579
Au 13.8946 15.8346 24.2387
Pt 13.2121 19.7465 10.0384
Pt 12.6479 9.70269 14.1234
Au 15.267 21.527 10.2931
Pt 21.3005 18.6374 18.4823
Pt 18.6919 9.56924 11.2773
Pt 16.6747 10.6652 15.6784
Au 21.544 17.5763 20.8767
Pt 12.4869 21.7755 11.5386
Pt 11.6375 19.4118 12.8008
Pt 17.895 18.6369 21.7587
Au 12.9448 22.2361 21.8137
Pt 15.3925 18.461 20.658
Pt 6.54256 12.2801 15.4253
Pt 16.5449 17.3462 18.5221
Au 14.1386 23.64 19.8268
Pt 19.1593 21.6742 18.573
Pt 19.0221 17.4562 19.4618
Pt 17.6564 11.2522 13.2827
Au 18.1943 22.2249 10.5483
Pt 16.0256 11.2389 19.5083
Au 10.9712 20.3454 22.1248
Pt 17.8052 13.1859 15.9302
Pt 21.6447 9.82096 15.822
Pt 9.08087 7.67568 12.9064
Pt 17.5576 7.25784 11.0425
Pt 12.2929 11.3126 21.9475
Pt 20.748 14.0595 11.835
Au 15.7477 4.87242 16.9134
Pt 10.6599 13.2626 12.011
Pt 7.12781 17.1979 17.4057
Pt 12.038 14.3412 6.62963
Au 19.4483 16.432 22.1876
Pt 15.8326 18.2988 13.6217
Pt 8.71855 13.0275 20.245
Pt 15.2317 21.1891 20.5723
Au 7.32773 10.0014 17.1524
Pt 16.195 9.85691 11.0304
Pt 17.4122 9.04489 8.88637
Au 10.3888 13.1969 22.4379
Pt 19.6699 16.3588 12.1909
Pt 11.3224 15.9107 8.97293
Pt 15.1195 7.63277 9.96815
Pt 12.1694 15.7958 16.4697
Pt 17.8345 11.6586 9.45271
Pt 17 16.2679 20.8514
Au 17.2044 11.5615 6.87146
Pt 12.289 15.0149 13.5964
Pt 15.997 10.6228 22.0418
Au 14.4662 15.8563 5.85614
Pt 13.6638 9.04656 8.22982
Pt 10.5078 12.1039 7.27868
Pt 21.2923 16.7747 14.3036
Pt 9.85098 15.2617 20.6753
Au 20.4696 20.7432 11.0798
Pt 7.83848 15.1291 18.8011
Pt 19.129 23.6969 14.5684
Au 23.3927 11.118 17.4399
Pt 14.3007 16.146 19.4841
Pt 10.0593 13.8867 17.9945
Au 15.016 13.2362 6.11786
Pt 11.0751 18.4377 17.2354
Pt 14.9772 14.9191 21.8295
Pt 13.8337 7.94888 19.0339
Au 21.4038 22.0114 14.3136
Pt 13.4696 19.6208 21.9814
Pt 17.7678 16.9547 9.98638
Pt 14.2126 13.0839 10.1368
Au 9.76205 23.6731 17.7262
Pt 17.6764 19.7594 14.7601
Pt 21.4275 20.4656 16.6774
Au 6.69702 18.0706 10.4049
Pt 11.2758 18.6981 8.5263
Pt 14.2913 16.3352 14.8393
Pt 16.7801 22.7269 19.1691
Pt 13.892 11.266 15.7334
Pt 12.4424 14.6332 20.8131
Pt 22.491 18.077 16.139
Au 20.0647 13.2068 8.72472
Pt 22.0705 15.2655 16.581
Pt 11.3657 10.6422 11.8892
Pt 9.22254 17.3232 10.0901
Au 15.3611 24.5978 17.455
Pt 15.0395 20.5281 15.1974
Pt 19.0326 21.3662 13.1958
Pt 13.8792 14.8644 8.26271
Au 17.8901 21.4889 21.3899
Pt 19.8404 19.8122 20.3403
Pt 17.2887 12.9546 21.233
Au 20.1573 23.3906 12.1243
Pt 8.62587 13.066 13.7246
Pt 9.31954 18.342 12.52
Pt 7.53378 9.99222 14.5085
Pt 10.041 9.32145 16.9841
Pt 18.0267 14.0309 13.0122
Pt 11.4183 15.6574 22.9566
Au 18.3724 15.342 7.74432
Pt 10.5489 21.2017 17.655
Pt 9.5458 17.0664 7.49604
Pt 14.7429 22.0927 17.6701
Au 17.9937 23.8104 17.002
Pt 20.2611 15.7547 9.68091
Pt 23.4741 11.5049 14.5826
Pt 10.2858 15.8341 12.106
Au 10.7469 22.5182 20.0793
Pt 11.6673 17.7019 10.9158
Au 16.1161 24.8048 14.8394
Pt 15.4493 10.9496 8.74505
Pt 16.8141 22.3636 14.8476
Pt 13.7439 17.332 9.24704
Pt 19.2287 21.5006 15.9133
Pt 19.7026 9.64688 13.8523
Pt 17.3566 19.7974 19.417
Au 8.59056 19.3987 8.69364
Pt 13.3887 17.0066 21.8009
Pt 18.125 14.3269 10.4043
Au 19.8166 7.75885 9.58244
Pt 21.3398 18.4757 12.3178
Pt 15.2869 9.5534 17.5893
Pt 7.32638 12.678 17.9419
Pt 11.5923 10.5529 9.13093
Au 12.0691 18.1554 23.7716
Pt 14.8061 8.77417 15.1204
Pt 21.2397 9.54484 11.1899
Au 8.53996 7.66489 15.5359
Pt 15.653 18.41 10.8938
Pt 18.2718 6.41895 13.6471
Pt 10.4222 14.2312 15.3154
Pt 13.7455 10.6362 10.7621
Pt 12.8196 21.0475 19.4053
Pt 19.2416 10.9169 16.224
Au 16.672 4.35769 14.3561
Pt 20.3911 19.3341 14.5947
Pt 13.8723 6.85301 16.7232
Au 11.0229 5.51536 13.356
Pt 14.3239 8.37954 12.4055
Pt 15.6771 13.0034 14.4192
Pt 7.49851 15.8361 11.6333
Pt 14.8001 22.627 13.0299
Pt 16.5336 7.30011 17.7207
Pt 20.0867 7.52132 12.3072
Au 6.08582 11.5286 12.7978
Pt 19.9961 8.44577 17.3821
Pt 10.8506 17.6953 21.319
Au 23.9028 16.0684 14.7062
Pt 22.2613 8.95965 13.5008
Pt 17.9757 15.5034 17.4231
Pt 11.3459 7.45649 15.3676
Pt 22.2572 13.3582 18.6038
Pt 7.49727 13.1637 11.2952
Pt 19.9269 13.7838 17.5879
Au 23.3681 16.8485 18.3764
Pt 18.8605 19.1582 17.2612
Pt 16.1227 14.1975 19.323
Au 12.3138 23.8326 13.3376
Pt 19.6518 14.9422 15.0511
Pt 16.3034 12.6352 11.468
Pt 11.6457 13.348 9.37212
Pt 15.6075 12.8615 23.3051
Pt 16.2674 8.67512 20.028
Pt 20.1226 12.4826 20.2909
Au 6.33343 19.2983 15.7722
Pt 14.2032 20.0215 12.485
Au 7.67758 12.8294 8.4175
Pt 18.1125 12.3021 18.4932
Pt 13.1652 18.6703 14.8352
Pt 9.3532 11.1283 18.6354
Pt 11.5696 9.68972 19.3978
Pt 15.5162 15.5459 10.3452
Pt 10.4262 20.1262 10.6122
Pt 13.9234 23.2221 15.503
Pt 12.8257 20.5152 16.7276
Pt 11.0076 22.7475 15.5254
Pt 8.62561 18.1084 15.3241
Pt 13.2891 12.0499 7.81535
Pt 11.5045 16.2588 18.9332
Pt 13.27 12.5915 12.6635
