286
Atoms. Timestep: 20302
Pt 9.67096 11.7579 21.4717
Pt 11.5961 7.82724 19.0087
Au 10.4581 5.90577 16.3101
Pt 8.78226 10.0774 19.4683
Au 9.1014 7.63509 18.151
Pt 10.2095 12.0159 15.9804
Pt 8.72709 7.92445 15.4322
Au 7.37712 10.1194 10.9685
Pt 11.1862 10.4857 18.1634
Pt 12.2255 11.0247 22.4511
Au 7.27927 12.0852 20.3147
Pt 7.87072 13.0659 14.886
Pt 8.89737 10.0181 16.9335
Au 6.15655 12.0906 12.6906
Pt 7.38273 12.0729 17.3571
Pt 7.57375 14.2859 18.9638
Au 5.39416 12.1932 15.4016
Pt 9.53107 16.4574 12.6782
Pt 5.8226 14.5553 13.9558
Au 5.83181 14.5568 11.1316
Pt 8.85851 11.7491 12.8292
Pt 8.0803 15.9502 14.925
Au 5.63712 16.9548 15.4088
Pt 7.66711 16.449 10.4762
Pt 8.64271 18.5023 9.19335
Au 6.60359 19.3959 13.8228
Pt 8.29013 18.6845 11.7457
Pt 8.30828 21.0934 15.1583
Au 9.91113 23.2743 14.0147
Pt 6.74381 16.8382 12.896
Pt 10.1909 20.1277 10.4086
Pt 11.1525 8.453 16.3786
Pt 12.9889 6.34951 17.1351
Au 12.3961 6.38037 11.8195
Pt 13.3214 11.6947 17.2665
Pt 14.1262 7.35775 19.4424
Au 12.9851 8.34773 21.8202
Pt 8.40706 8.80257 12.9755
Pt 12.1775 8.97907 12.651
Au 9.87548 7.34445 11.3335
Pt 10.2007 9.93651 14.3478
Pt 9.53573 12.5292 18.7951
Pt 15.7925 11.9932 18.0106
Au 10.2416 14.1844 14.166
Pt 11.8115 12.3091 20.1043
Pt 11.578 13.4781 22.5893
Pt 13.6015 10.3571 20.0034
Au 14.047 13.0438 24.1057
Pt 10.9979 9.64549 20.6818
Au 10.7011 15.9486 23.0195
Pt 7.91085 12.656 10.4767
Pt 9.19406 10.8945 9.07201
Au 7.36024 14.4597 8.62857
Pt 7.48713 10.4861 14.8098
Pt 12.0844 16.6577 13.3965
Pt 11.4465 11.8627 12.9606
Au 14.0056 13.5362 11.0246
Pt 9.134 14.376 16.7754
Pt 10.0152 15.7598 18.7589
Pt 11.973 14.9783 20.4635
Au 11.7972 15.6456 15.874
Pt 6.31301 14.4623 16.5648
Pt 9.4593 14.3009 20.947
Au 7.74026 16.4992 20.4277
Pt 10.7123 17.0986 10.4288
Pt 9.38039 16.2269 8.30789
Au 12.6339 17.8942 6.03842
Pt 8.04337 14.3266 12.5203
Pt 11.6236 14.5011 11.9574
Pt 9.54298 14.7007 10.3957
Au 15.3807 17.9157 9.91935
Pt 13.7637 18.7576 12.9461
Pt 9.12887 18.5513 14.3533
Pt 9.77035 17.1595 16.5248
Au 15.7607 17.0599 12.9494
Pt 7.42236 16.5359 17.6647
Pt 8.87169 18.4711 18.8643
Au 7.86834 20.8851 17.9784
Pt 11.0107 18.6773 8.16777
Pt 12.1631 21.2361 9.26905
Pt 13.6246 19.5155 7.98196
Pt 12.6455 18.8295 10.4307
Pt 9.07191 20.9493 12.6909
Pt 14.7325 20.4608 10.4218
Au 14.5973 22.1427 8.2785
Pt 10.948 18.8694 12.5906
Pt 7.44677 18.7402 16.3362
Au 9.83579 22.5466 16.8445
Pt 10.7872 22.5232 11.4411
Pt 12.5541 20.8806 12.1109
Pt 10.7819 7.25348 13.9301
Pt 14.287 8.16756 10.9197
Au 12.5933 5.29598 14.4589
Pt 12.6958 10.3205 15.0712
Pt 16.7914 7.02503 19.2735
Au 15.3012 5.14346 18.0844
Pt 10.8149 12.4443 10.4248
Pt 12.2931 13.1795 6.92614
Au 13.6807 10.8389 6.42704
Pt 11.8094 8.5587 9.91835
Pt 10.122 10.0127 11.3122
Pt 15.3557 9.98748 15.9017
Au 16.6637 12.9941 12.3401
Pt 15.445 7.6048 16.9881
Pt 13.3859 9.10029 17.5429
Pt 17.9903 9.11402 20.4449
Au 14.0608 14.695 13.5129
Pt 15.5664 8.56915 21.2521
Pt 14.6821 10.5496 22.7563
Au 17.3463 9.92181 22.9142
Pt 11.2749 15.63 6.90223
Pt 13.6919 15.4176 6.22992
Au 17.3066 18.5088 5.96581
Pt 9.87593 13.3502 8.08425
Pt 12.0093 14.5525 9.24065
Pt 13.8401 12.254 8.79157
Au 14.702 14.9948 8.62888
Pt 16.811 8.72769 12.0113
Pt 12.5255 13.0147 15.1101
Pt 15.8179 9.5041 18.6864
Au 16.2251 15.3107 11.0078
Pt 11.6187 13.7505 17.8132
Pt 11.3272 19.4755 21.1539
Pt 16.1555 11.1518 20.6406
Au 16.0044 15.6055 18.2631
Pt 14.1161 12.9096 21.5574
Pt 10.2594 17.2167 20.827
Pt 16.5598 12.4781 22.849
Au 13.1531 16.2344 18.2438
Pt 13.3165 15.4759 22.876
Au 12.5712 18.1293 23.2397
Pt 15.2344 17.4626 7.28612
Pt 16.1644 19.9571 7.9918
Pt 17.8959 17.9632 8.46685
Pt 12.8785 16.9287 8.55926
Pt 17.5437 20.3518 10.1164
Pt 17.3399 15.4647 8.54311
Au 18.8675 20.3019 7.67848
Pt 13.4904 16.3298 11.122
Pt 11.9412 18.5542 15.3398
Pt 14.6794 9.34877 13.2984
Au 14.2254 16.893 15.2478
Pt 11.4714 18.277 18.403
Pt 9.92133 19.7668 16.7005
Pt 13.1316 20.1294 19.2806
Au 14.1903 18.7466 17.1983
Pt 10.4557 20.8096 19.0732
Pt 12.8788 17.4716 20.733
Au 12.2034 21.9043 21.1826
Pt 16.2096 22.6766 10.4394
Pt 13.5038 22.9372 10.655
Pt 17.8981 22.0467 12.462
Pt 15.0323 22.0125 12.6351
Pt 12.2622 23.1137 15.8173
Pt 13.6612 20.9226 14.6452
Au 14.8213 24.6329 12.2094
Pt 11.0133 20.9431 14.4569
Pt 12.2788 20.8075 16.9585
Au 11.9776 23.0411 18.6066
Pt 12.5753 23.2385 13.2295
Pt 14.641 23.6318 14.857
Pt 16.4457 8.70849 9.39465
Pt 18.7709 8.81039 15.1448
Au 16.7853 6.32882 11.0158
Pt 15.1127 5.60785 15.4216
Pt 17.6401 6.35507 16.6517
Au 17.2335 5.30225 13.8397
Pt 16.2636 10.9371 7.90362
Pt 14.0028 9.54785 8.70475
Au 18.7928 16.2692 6.29161
Pt 11.6295 10.8994 8.35732
Pt 12.8166 10.8133 10.8519
Pt 15.3827 10.7963 10.7854
Au 18.6575 9.49978 8.11031
Pt 13.4348 7.75903 14.9711
Pt 18.1098 8.78011 17.666
Pt 20.2333 9.28151 19.396
Au 14.1379 11.862 13.1308
Pt 16.5295 7.82629 14.569
Pt 18.2638 11.3246 18.8457
Au 22.5678 9.59161 18.2601
Pt 15.0111 13.1319 6.63175
Pt 16.2956 15.4254 6.15902
Pt 19.7072 14.3257 7.79289
Pt 16.4292 12.9829 9.38331
Pt 19.7104 16.2272 9.59384
Pt 20.2168 17.3941 11.9483
Au 20.6038 17.8344 7.54779
Pt 17.9228 10.927 10.6283
Pt 18.5355 15.191 12.7967
Pt 13.9916 13.4866 19.0945
Au 15.6555 12.5651 15.2065
Pt 17.522 13.7221 17.2119
Pt 16.5976 13.6388 20.2494
Pt 18.3031 13.1029 14.5939
Au 14.3328 14.4091 16.5299
Pt 18.8067 11.727 21.3404
Pt 15.9533 14.9457 22.8352
Au 21.073 13.6681 21.4054
Pt 20.0064 19.0861 9.79658
Pt 16.4001 19.704 12.4467
Pt 19.0864 19.6892 12.1943
Pt 17.7783 17.5834 11.0972
Pt 15.743 19.2093 14.9651
Pt 18.2672 17.6182 13.9532
Au 19.9643 21.6785 10.6003
Pt 16.4612 15.1646 14.7162
Pt 15.1879 17.9085 19.5993
Pt 20.0886 13.2886 16.8612
Au 16.8416 17.4234 16.501
Pt 14.6563 15.4854 20.6333
Pt 14.2228 19.8211 21.5488
Pt 18.4478 14.2901 22.1267
Au 17.2856 16.3677 20.6015
Pt 15.1616 17.4455 22.4107
Au 17.9943 16.9646 23.0073
Pt 16.4119 21.7009 14.7566
Pt 16.8155 23.5639 16.474
Pt 18.405 20.096 14.6196
Pt 14.9086 21.4298 16.9808
Pt 16.6809 22.7688 18.8707
Pt 15.8385 20.2914 19.1578
Au 17.0297 24.2587 13.7203
Pt 14.3113 22.4038 19.7245
Pt 16.9374 19.0709 21.3766
Au 16.2029 21.7311 21.4954
Pt 14.357 23.8129 17.4981
Pt 17.4979 20.4375 17.064
Pt 18.8591 8.27791 10.4242
Pt 18.8005 7.15906 12.8644
Au 21.2793 8.09544 11.4483
Pt 14.859 6.59653 12.9521
Pt 20.6524 8.00491 16.8647
Au 19.7182 6.05394 15.1534
Pt 17.53 13.2628 6.91303
Pt 18.6704 13.9166 10.408
Pt 20.5755 10.6164 10.4023
Pt 19.3611 9.73097 12.6193
Pt 19.6214 12.3711 12.2639
Pt 22.2974 9.85085 15.6113
Au 22.0402 15.4318 8.28083
Pt 17.1482 10.7009 13.6697
Pt 20.2208 10.5802 17.142
Au 19.3979 6.72778 18.8703
Pt 22.0463 17.3787 10.0343
Pt 20.9621 14.9271 11.7062
Pt 19.0439 11.9769 8.57377
Pt 22.8549 12.1977 14.57
Pt 20.8611 16.3005 14.162
Pt 22.43 12.0604 17.2126
Au 23.3741 14.9355 10.6708
Pt 17.7948 11.077 16.267
Pt 20.9268 11.8524 19.4016
Au 23.3997 16.5552 17.9473
Pt 21.7829 19.6035 11.8327
Pt 20.9675 18.8974 14.2435
Pt 23.1399 14.6904 13.5053
Pt 22.0381 18.7872 16.6772
Pt 18.8493 16.0195 18.2501
Pt 18.8369 15.5416 15.6257
Au 23.7113 19.1016 13.8042
Pt 19.0893 13.7671 19.5039
Pt 21.5611 14.4793 18.704
Au 22.5091 16.0636 20.525
Pt 19.3967 18.2995 16.4919
Pt 20.5219 21.489 13.4004
Pt 22.8092 17.0564 12.4736
Pt 17.9312 18.4604 18.8711
Pt 18.2829 20.9699 19.9448
Pt 20.96 17.5822 18.9058
Au 22.6365 21.1104 15.0042
Pt 19.9052 16.0274 20.7663
Au 19.5898 18.7045 21.0639
Pt 18.981 22.4061 17.7227
Pt 20.1664 19.9946 18.5341
Pt 21.0254 8.15822 14.12
Pt 21.9353 10.3088 12.8735
Pt 20.2039 11.194 14.6746
Pt 21.1589 13.2258 9.70357
Pt 20.7999 13.7587 14.2686
Pt 22.2715 12.6492 11.9646
Pt 22.7491 14.3769 16.1467
Pt 23.1808 16.8868 15.1888
Pt 21.0592 16.1795 16.734
Pt 20.3608 20.8632 16.1466
Pt 18.8608 22.7209 15.0468
