286
Atoms. Timestep: 20226
Pt 6.94824 11.8106 19.0457
Pt 9.94153 8.66874 18.9526
Au 8.21823 7.91195 16.9191
Pt 6.38023 10.2739 17.048
Au 7.31976 9.12929 19.2521
Pt 7.90038 12.2157 16.0152
Pt 7.57301 9.60076 14.8752
Au 6.18725 9.94837 12.3841
Pt 9.08874 10.4573 17.3605
Pt 9.13261 10.9201 20.1591
Au 8.47017 13.3612 21.1167
Pt 6.3218 14.0121 14.6045
Pt 5.58589 11.4426 14.7771
Au 5.17278 12.7507 12.3961
Pt 5.67329 12.9262 17.069
Pt 6.90446 14.4702 19.0174
Au 5.15905 15.4826 16.9277
Pt 8.29983 16.2575 13.0252
Pt 5.66657 15.6163 12.6766
Au 5.85417 14.3677 10.0803
Pt 9.24076 13.851 14.362
Pt 6.7476 16.7082 15.1808
Au 6.08392 19.3055 15.4743
Pt 7.0793 16.6576 10.5722
Pt 8.49698 18.6733 9.11775
Au 6.24701 19.4648 10.5411
Pt 8.44278 18.6275 11.7307
Pt 7.18913 20.676 12.9995
Au 8.78843 23.077 11.9585
Pt 6.14256 18.1492 12.9215
Pt 8.65359 20.9025 10.4994
Pt 9.91549 8.33526 14.7876
Pt 13.5547 7.40245 16.8899
Au 10.7566 7.38929 12.251
Pt 10.9649 7.34518 16.9556
Pt 12.4917 8.56635 18.9683
Au 13.8075 8.50303 21.4484
Pt 9.0239 9.53217 12.5844
Pt 11.7897 9.73623 13.2203
Au 7.89485 9.51288 10.2101
Pt 9.91858 11.0069 14.7049
Pt 9.05283 13.0646 18.4264
Pt 11.568 9.78172 16.4391
Au 10.7911 12.9548 16.4422
Pt 11.3592 11.2306 18.7027
Pt 11.0417 12.2981 21.3452
Pt 13.5764 10.9119 20.2401
Au 13.0125 11.1304 22.8657
Pt 11.3575 9.72352 21.0074
Au 12.5175 13.8431 23.5332
Pt 7.14896 12.0021 10.6152
Pt 9.25434 11.5821 9.08914
Au 7.32624 13.3171 8.03319
Pt 7.73967 11.8032 13.3324
Pt 9.78365 16.2688 15.3098
Pt 11.6513 12.4984 13.4552
Au 13.4823 13.7701 11.7964
Pt 7.83761 14.7651 16.5782
Pt 9.58699 15.8721 18.0184
Pt 11.1627 14.0911 19.3585
Au 11.9919 15.3531 16.8892
Pt 8.72561 15.8954 20.3986
Pt 10.7808 14.9555 21.7765
Au 10.0256 17.7819 21.9016
Pt 9.77509 16.7488 10.4645
Pt 8.45406 16.0339 8.24514
Au 12.7496 16.9737 6.68838
Pt 7.61952 14.0372 12.1344
Pt 10.3171 14.6163 12.156
Pt 8.89579 14.1957 9.9438
Au 14.8873 18.1077 9.02994
Pt 12.1331 15.0012 14.1258
Pt 8.47039 18.5801 14.2422
Pt 8.67227 18.1922 16.6987
Au 13.3164 18.2657 12.1846
Pt 7.02899 16.948 18.1851
Pt 9.0583 18.3049 19.3526
Au 7.10758 19.7989 18.0425
Pt 10.371 17.9704 7.5811
Pt 10.7573 20.3198 8.75026
Pt 12.9729 19.5688 7.57454
Pt 10.8353 19.2757 11.0949
Pt 9.6911 20.8152 13.1417
Pt 13.2612 20.2457 10.2936
Au 12.8992 22.37 8.86257
Pt 10.7175 17.4883 13.016
Pt 8.32058 20.7893 15.6227
Au 8.88571 23.0928 14.6023
Pt 11.0651 21.9545 10.8633
Pt 12.2015 20.5778 13.0606
Pt 12.3587 7.38365 14.4799
Pt 12.8084 8.64036 10.993
Au 13.6292 6.39622 12.3225
Pt 13.7924 9.44888 15.1305
Pt 15.0066 7.76388 19.0647
Au 16.1161 6.12087 17.1437
Pt 12.4579 11.2918 10.9701
Pt 11.6733 11.3184 8.20731
Au 13.9458 11.5099 6.60038
Pt 10.5614 9.67224 10.3812
Pt 9.79026 11.9635 11.6524
Pt 15.7992 11.1209 15.0853
Au 15.8337 13.5906 10.4292
Pt 15.9008 8.76159 16.8059
Pt 13.9581 10.2996 17.6554
Pt 18.2146 8.7218 18.9944
Au 13.2458 12.1511 15.7296
Pt 16.0246 10.0931 19.3606
Pt 15.5806 10.509 21.9517
Au 16.5603 8.00499 21.1645
Pt 11.0669 15.6462 8.42101
Pt 12.5345 13.8213 7.13023
Au 15.5495 19.1036 6.49323
Pt 9.96248 13.5028 7.55129
Pt 11.4387 13.466 9.87074
Pt 13.8285 12.5733 9.08873
Au 13.7281 15.3913 8.8968
Pt 14.0411 11.3729 13.1328
Pt 14.4714 14.4928 16.6073
Pt 15.9367 12.2257 17.5996
Au 14.9326 16.289 11.2723
Pt 13.4151 12.9072 18.4219
Pt 11.3985 16.8105 19.8747
Pt 15.7559 12.6159 20.2078
Au 16.3239 14.8874 18.5058
Pt 13.2991 13.5112 21.0151
Pt 13.2015 16.0598 21.9059
Pt 17.5012 12.2999 22.2708
Au 13.6116 15.5721 19.1331
Pt 15.0756 12.9923 22.8926
Au 14.8151 15.4089 23.9657
Pt 15.3317 16.5015 6.81539
Pt 15.0774 20.8074 8.42254
Pt 17.5292 17.8063 7.94176
Pt 12.2326 17.8722 9.39197
Pt 16.6428 19.6499 10.2897
Pt 16.4394 15.7279 9.02156
Au 17.6843 20.4333 7.94505
Pt 12.2037 15.9704 11.1889
Pt 12.2595 17.4548 15.1454
Pt 14.7502 13.834 14.1692
Au 14.4785 16.5795 14.0583
Pt 11.2318 17.996 17.5398
Pt 9.80749 20.4466 17.7047
Pt 13.4195 18.7528 19.0509
Au 14.3345 17.3569 16.9572
Pt 11.1807 19.7548 19.8048
Pt 12.6119 18.4683 21.6245
Au 12.6219 21.1618 21.4926
Pt 15.579 22.219 10.433
Pt 13.3823 22.7364 11.7313
Pt 17.4234 21.4381 12.2004
Pt 14.8308 20.6191 12.3278
Pt 11.1123 22.0511 15.7518
Pt 13.8562 19.4584 14.7473
Au 15.6941 23.3905 13.067
Pt 10.7573 19.5133 15.2062
Pt 12.474 20.2825 17.0985
Au 11.4715 22.3004 18.7474
Pt 11.2586 23.0283 13.3242
Pt 13.6555 22.2139 14.5361
Pt 15.1655 7.80946 10.4518
Pt 19.5322 9.05498 14.893
Au 17.8339 6.93956 10.3079
Pt 15.0227 6.96189 14.7648
Pt 18.3496 7.65423 16.7115
Au 17.7405 6.00954 14.7549
Pt 16.1674 11.5469 8.18799
Pt 16.6409 9.25334 9.02554
Au 17.588 12.7582 6.05559
Pt 13.837 9.84618 8.8507
Pt 15.2356 10.7884 10.8135
Pt 17.2107 9.26297 11.7772
Au 18.0409 11.5228 10.5179
Pt 14.7018 8.87447 12.8118
Pt 17.7809 10.498 16.7223
Pt 20.4896 9.91806 19.9462
Au 16.5685 12.5136 12.7339
Pt 16.9888 8.75542 14.3982
Pt 18.2184 11.5218 19.2277
Au 22.7641 10.0192 18.4876
Pt 15.3586 13.8812 7.20697
Pt 17.818 15.4738 6.71745
Pt 19.9041 14.0151 7.08217
Pt 17.777 13.5621 8.59443
Pt 19.289 15.7965 9.21368
Pt 19.9627 16.8343 11.7471
Au 20.2635 16.8877 7.13258
Pt 18.4409 14.3899 11.2228
Pt 16.7129 15.307 12.9648
Pt 17.2265 13.2762 15.5734
Au 19.0426 14.1347 13.8013
Pt 18.6588 13.728 17.9113
Pt 18.1878 14.0367 20.4714
Pt 20.7534 12.1198 18.4708
Au 19.0077 15.7654 16.1754
Pt 18.2199 10.0267 21.3307
Pt 17.3214 14.9571 22.9499
Au 19.4818 13.4627 23.6028
Pt 19.4748 18.5648 9.41647
Pt 16.2367 18.4879 12.8073
Pt 18.7996 19.1621 11.8815
Pt 17.5201 17.1173 10.8657
Pt 16.3576 18.4695 15.4501
Pt 18.4038 17.1714 13.9091
Au 19.1463 21.2154 10.1347
Pt 16.4762 15.8027 15.6073
Pt 15.3531 17.4103 19.8811
Pt 21.0011 14.2609 19.8142
Au 17.1729 17.3781 17.7736
Pt 15.5106 15.0433 21.1507
Pt 14.852 19.6157 21.3601
Pt 19.8157 15.4985 21.9355
Au 17.7634 16.7159 20.6228
Pt 15.7493 17.3994 22.4674
Au 18.3362 17.4813 23.2555
Pt 16.1133 21.0233 14.5224
Pt 16.0095 23.0652 15.9095
Pt 18.3512 19.8813 14.3354
Pt 15.0097 20.4192 16.8879
Pt 16.1395 22.4292 18.3501
Pt 16.2311 19.765 19.0818
Au 18.3114 22.8542 14.351
Pt 13.9425 21.323 19.2921
Pt 17.5802 19.3799 21.3413
Au 16.1078 21.8734 21.0096
Pt 13.5932 22.7156 17.0667
Pt 17.6579 20.4141 16.9014
Pt 19.0668 9.10759 9.58746
Pt 19.0695 7.42339 12.7636
Au 21.136 7.92674 10.7875
Pt 16.4306 6.78968 12.5609
Pt 22.0786 8.94131 15.9187
Au 20.5028 6.64798 15.322
Pt 19.0241 11.3159 7.96661
Pt 20.1422 13.1782 9.61698
Pt 21.0134 10.6933 9.7864
Pt 19.7881 9.83465 12.0447
Pt 20.4338 12.3837 12.0891
Pt 22.3231 11.5737 16.3534
Au 21.7517 12.1797 7.65727
Pt 18.3712 11.1407 13.8557
Pt 20.1528 9.94929 17.3179
Au 20.7905 7.59581 18.0941
Pt 21.8785 14.8137 8.67658
Pt 21.4011 14.7459 11.6088
Pt 22.6697 12.7483 10.218
Pt 21.6126 13.5309 14.4683
Pt 21.0123 16.0213 14.1691
Pt 23.2705 13.2275 18.0704
Au 23.775 15.3154 10.6314
Pt 19.701 12.2422 15.9166
Pt 22.4342 12.0283 20.3939
Au 23.7766 14.389 20.4405
Pt 21.6533 17.0833 9.74961
Pt 20.6961 18.6458 13.8915
Pt 23.5261 15.1299 13.3687
Pt 21.424 17.0155 16.6111
Pt 19.8141 16.338 18.8327
Pt 21.1419 14.3392 17.0014
Au 21.4571 19.5442 11.1503
Pt 19.9766 12.2057 21.2677
Pt 22.005 16.4213 20.8473
Au 21.9331 13.8982 22.3815
Pt 19.4102 18.5559 16.3973
Pt 20.1302 21.2156 12.8413
Pt 22.5585 17.3226 12.2192
Pt 18.8597 18.9344 19.0385
Pt 18.2957 21.4997 19.491
Pt 21.5144 18.4454 18.8716
Au 22.6258 20.3166 13.7421
Pt 20.0355 18.038 21.1957
Au 20.5154 20.5216 20.5954
Pt 18.5401 22.697 17.02
Pt 20.3433 20.7896 17.9391
Pt 21.6211 8.32981 13.4071
Pt 22.5014 10.2806 11.8376
Pt 21.1533 10.9236 14.098
Pt 23.617 10.4764 14.2679
Pt 23.2583 12.6254 12.6682
Pt 24.0816 13.0001 15.1621
Pt 23.3671 15.3066 15.9861
Pt 23.1308 17.6489 14.7089
Pt 22.7901 15.9276 18.4778
Pt 21.9966 19.492 16.2884
Pt 20.257 21.2154 15.4318
