286
Atoms. Timestep: 20143
Pt 9.3631 11.9176 21.2311
Pt 11.2467 7.87137 18.3981
Au 10.0645 6.4244 16.3377
Pt 8.02188 10.5771 19.4082
Au 8.61657 8.34161 17.9843
Pt 9.83684 12.3667 15.7546
Pt 8.85953 8.70351 15.2594
Au 8.1247 9.35318 12.2153
Pt 10.4365 10.0761 17.0181
Pt 11.7024 11.1746 22.1161
Au 6.91858 12.7091 20.9035
Pt 7.49468 13.349 15.5069
Pt 7.7676 10.7361 16.779
Au 5.54661 12.3569 13.7167
Pt 7.08163 12.8286 18.2832
Pt 7.16294 15.0979 19.6633
Au 5.2607 12.3348 16.4071
Pt 9.38415 16.4274 12.4858
Pt 5.5151 14.8919 14.5134
Au 5.53812 14.3752 11.7424
Pt 9.78969 12.4939 12.9147
Pt 7.71892 16.1937 15.3211
Au 5.37464 17.3843 15.6856
Pt 7.42218 16.0259 10.7759
Pt 8.88444 17.8564 9.54371
Au 6.39973 19.5584 13.8623
Pt 7.82799 18.7391 11.6849
Pt 8.33092 21.2088 14.9789
Au 9.78143 23.4631 13.7055
Pt 6.54633 16.9182 13.1204
Pt 9.52823 20.3792 10.0896
Pt 11.5262 8.33348 15.4788
Pt 12.9171 6.45399 16.8496
Au 12.5413 6.10071 11.6181
Pt 12.318 11.9055 17.4618
Pt 13.7785 7.45797 19.2436
Au 12.2933 8.55811 21.2835
Pt 10.297 7.73732 13.0803
Pt 12.6301 8.65678 12.8215
Au 9.30056 8.83141 9.66021
Pt 10.5932 10.3428 14.1953
Pt 9.62579 12.2337 18.307
Pt 15.1462 11.8385 17.4983
Au 9.99516 14.9022 14.6577
Pt 11.6217 12.5965 19.9274
Pt 11.0402 13.7717 22.3495
Pt 13.2995 10.5957 19.8319
Au 13.3073 13.1378 24.014
Pt 10.6429 10.0549 19.7041
Au 8.32301 14.6639 22.2753
Pt 7.37135 12.238 11.7965
Pt 8.96604 11.4237 10.0245
Au 7.16167 13.5606 9.42965
Pt 7.91698 11.0642 14.1966
Pt 12.0911 16.8549 12.9369
Pt 12.56 11.738 12.9346
Au 14.2924 13.0618 11.3588
Pt 8.79122 14.7306 17.3703
Pt 9.88324 16.5681 19.1375
Pt 11.9917 15.1703 20.1808
Au 12.1378 16.2095 15.5673
Pt 5.99703 14.9392 17.1116
Pt 9.49093 14.2048 20.011
Au 7.97792 17.3241 20.8971
Pt 10.9502 16.3686 10.2898
Pt 8.90999 15.4747 8.63893
Au 12.666 17.7841 6.30066
Pt 7.80308 14.4272 13.106
Pt 11.6205 14.3708 12.275
Pt 9.37398 14.1497 10.8369
Au 15.4927 17.7951 9.98343
Pt 13.9475 18.8877 13.2091
Pt 8.81243 18.4077 14.1471
Pt 9.79347 17.2418 16.4934
Au 15.7362 16.9559 12.8551
Pt 7.32213 16.9977 17.9444
Pt 8.67969 19.0013 18.7515
Au 7.85568 21.2811 17.6995
Pt 11.1655 18.4708 8.57046
Pt 12.0456 20.7233 9.64182
Pt 13.8314 19.3023 8.2753
Pt 12.8788 18.3966 10.7491
Pt 9.3393 20.7509 12.7038
Pt 14.7129 20.253 10.6595
Au 16.014 20.8664 8.27942
Pt 10.5111 18.6689 11.6572
Pt 7.4596 18.9756 16.2875
Au 9.81346 22.8522 16.7309
Pt 10.7831 22.4374 11.3486
Pt 12.2956 20.6618 12.3358
Pt 12.4135 6.19095 14.2469
Pt 14.426 7.98612 10.6858
Au 14.2564 4.48582 13.1647
Pt 13.1303 10.7236 15.2333
Pt 16.549 7.15057 19.3626
Au 15.1259 5.22681 18.0748
Pt 11.3651 12.3288 10.5887
Pt 12.1725 13.1546 7.02381
Au 13.1879 10.7368 6.47403
Pt 11.7883 8.19308 10.1515
Pt 10.5731 10.0524 11.6406
Pt 15.7102 9.92529 15.8835
Au 17.0311 12.4309 12.1264
Pt 15.3827 7.64081 17.0788
Pt 13.1824 9.33427 17.431
Pt 17.6621 9.35726 20.4366
Au 13.9959 14.7107 13.6152
Pt 15.0483 8.69424 21.1635
Pt 14.0892 10.661 22.645
Au 16.7068 9.93199 22.9124
Pt 11.1529 15.7353 7.43095
Pt 13.6831 15.2646 6.50635
Au 18.254 16.8617 6.30174
Pt 9.99133 13.136 8.35814
Pt 12.2378 14.3301 9.38241
Pt 13.6973 12.0404 8.85883
Au 14.8346 14.5778 8.81482
Pt 16.7969 8.81738 11.8275
Pt 12.1065 13.2734 14.9913
Pt 15.5215 9.60246 18.7417
Au 16.4534 14.9168 11.2211
Pt 11.3816 14.4287 17.6475
Pt 10.3317 18.8522 20.7884
Pt 15.6493 11.3527 20.6272
Au 17.1499 13.7127 16.9322
Pt 13.7219 13.1325 21.5183
Pt 10.3868 16.3995 21.8578
Pt 15.9703 12.55 22.9751
Au 13.2701 16.5348 18.1183
Pt 12.8502 15.6662 22.757
Au 12.1295 18.4648 22.9881
Pt 15.401 17.2846 7.21783
Pt 17.5252 20.1417 10.373
Pt 17.6073 18.5559 8.3011
Pt 13.2315 16.7381 8.67897
Pt 16.5299 19.4968 12.6325
Pt 17.0999 15.915 8.7375
Au 18.8851 20.9827 8.29228
Pt 13.7677 15.8383 11.1224
Pt 11.3199 18.9254 14.2799
Pt 14.8514 10.0751 13.0419
Au 14.8066 16.6564 15.4726
Pt 11.322 18.5168 18.2704
Pt 10.0125 19.9277 16.4884
Pt 13.3935 19.6999 19.0189
Au 13.1211 18.8101 16.2369
Pt 10.4386 21.0267 18.9428
Pt 12.6465 17.6707 20.6121
Au 11.9199 20.9639 21.1445
Pt 16.2275 22.4457 10.5867
Pt 13.4734 22.5909 10.704
Pt 17.9413 21.801 12.5886
Pt 14.9753 21.7969 12.7493
Pt 12.2017 23.538 15.755
Pt 13.6043 21.119 14.8135
Au 14.8878 24.403 12.1272
Pt 11.0399 21.4637 14.6364
Pt 12.3362 21.3053 17.1761
Au 11.7985 23.4033 18.6946
Pt 12.5724 23.2432 13.1544
Pt 14.6669 23.6261 14.8364
Pt 16.4445 8.53327 9.0939
Pt 19.0018 8.67874 15.4314
Au 16.7751 6.27983 10.9306
Pt 15.1071 5.68842 15.3606
Pt 17.5528 6.3808 16.6243
Au 17.1318 5.27634 13.6434
Pt 15.9264 10.6889 7.72057
Pt 13.8255 9.25186 8.52256
Au 17.664 12.2191 6.40585
Pt 11.3511 10.5765 8.63228
Pt 13.0805 10.3406 10.8049
Pt 15.5218 10.7604 10.3849
Au 18.5509 9.71694 7.70463
Pt 14.0434 8.17766 14.9517
Pt 17.7981 8.83043 17.7833
Pt 19.8407 10.8945 20.0812
Au 15.409 12.3774 14.5559
Pt 16.7511 7.82698 14.5284
Pt 17.5928 11.5315 18.8099
Au 21.9302 8.80992 16.2617
Pt 14.8688 12.8353 6.65147
Pt 16.4206 14.8214 6.48425
Pt 18.9012 14.4185 7.35374
Pt 16.8586 12.935 8.9274
Pt 19.5677 16.6509 8.91374
Pt 20.4172 17.0491 11.5423
Au 20.2004 18.6847 7.22127
Pt 17.9872 10.7242 10.0976
Pt 18.9774 14.7505 12.6203
Pt 13.9557 13.5528 18.9918
Au 16.7682 14.8443 14.3376
Pt 19.7269 12.7458 17.1252
Pt 16.4042 13.7754 20.307
Pt 18.7361 12.8804 14.4444
Au 14.1996 14.1632 16.4161
Pt 18.1052 11.8699 21.6063
Pt 15.4991 14.9998 22.9519
Au 20.5921 13.1812 21.6121
Pt 20.0901 19.0615 9.8309
Pt 15.7348 19.1704 15.1055
Pt 19.2149 19.3693 12.2853
Pt 17.902 17.3661 10.9751
Pt 15.5308 18.4566 17.5616
Pt 18.4682 17.1826 13.6822
Au 20.0583 21.5578 10.8346
Pt 17.3578 17.2072 16.0704
Pt 15.2542 17.8913 20.0225
Pt 21.4749 13.9731 15.6388
Au 15.9198 15.736 18.2186
Pt 14.5405 15.5828 20.6585
Pt 14.2645 19.8811 21.5696
Pt 18.1134 14.3959 22.2664
Au 17.3672 16.3892 20.7396
Pt 14.788 17.5206 22.6029
Au 17.3845 16.9344 23.3154
Pt 16.4299 21.6005 14.8324
Pt 16.7606 23.446 16.5568
Pt 18.3632 19.7699 14.7481
Pt 15.0174 21.1572 17.0944
Pt 16.5189 22.7427 18.9672
Pt 15.9789 20.3084 19.4127
Au 17.0796 24.0775 13.7258
Pt 13.9788 22.1035 19.7036
Pt 16.9582 19.0878 21.6388
Au 16.1414 21.8543 21.5673
Pt 14.2186 23.538 17.4811
Pt 17.6057 20.4249 17.1796
Pt 18.764 8.10958 10.1577
Pt 18.7575 7.27115 12.7521
Au 21.1638 7.86919 11.2596
Pt 14.9492 6.93877 12.8769
Pt 20.0993 10.1372 17.6661
Au 19.6698 6.16702 14.986
Pt 19.5386 12.1713 8.54984
Pt 18.918 14.3817 10.0619
Pt 20.5431 10.0825 9.77227
Pt 19.3576 9.81232 12.2928
Pt 19.7335 12.2739 11.4419
Pt 22.8862 10.6256 14.3583
Au 20.9982 16.0954 6.75987
Pt 17.476 10.4138 13.8668
Pt 22.1884 11.5597 16.7062
Au 19.9843 7.2968 17.5838
Pt 22.0634 16.5322 9.36032
Pt 21.3696 14.5914 11.3301
Pt 21.2474 14.2039 8.67894
Pt 23.7707 12.9668 15.0209
Pt 21.1152 15.8757 13.778
Pt 23.2324 13.8685 17.6208
Au 23.776 14.4698 10.346
Pt 17.9305 11.0947 16.3022
Pt 21.5091 12.5202 19.1006
Au 23.3604 16.5933 18.1802
Pt 21.8668 19.2779 12.2676
Pt 20.6789 18.5164 14.4701
Pt 23.4208 14.8039 13.1873
Pt 22.1506 18.9381 16.9442
Pt 18.6001 16.0396 18.2464
Pt 19.1997 15.2867 15.6915
Au 22.7174 18.9725 9.84297
Pt 18.9259 13.6327 19.5497
Pt 20.8942 14.9123 18.1697
Au 22.5178 14.8191 20.2263
Pt 19.4714 18.3541 16.834
Pt 20.4931 21.2424 13.5777
Pt 23.0187 16.895 11.7619
Pt 17.9292 18.4603 19.0281
Pt 18.325 20.9983 20.1263
Pt 20.9162 17.476 18.9484
Au 22.7834 20.3059 14.6984
Pt 19.9947 15.7369 20.7058
Au 19.5667 18.474 21.1526
Pt 18.9736 22.3869 17.876
Pt 20.2052 20.0206 18.7209
Pt 21.0441 8.45449 13.8211
Pt 21.8398 10.4515 12.0737
Pt 20.3288 10.8638 14.8512
Pt 22.0521 12.2623 10.1428
Pt 21.3229 12.8754 13.3907
Pt 23.5881 12.4013 12.2978
Pt 23.7257 15.5469 15.69
Pt 23.1015 17.639 14.3111
Pt 21.4063 16.6132 16.2808
Pt 20.4686 20.811 16.2165
Pt 18.8328 22.5287 15.189
