286
Atoms. Timestep: 20279
Pt 9.70458 11.4097 21.2029
Pt 11.348 7.74322 18.6191
Au 8.821 7.43202 17.9825
Pt 7.46734 11.8236 19.8435
Au 10.5572 8.65623 21.3048
Pt 9.67337 12.2517 15.8819
Pt 7.94809 8.37643 15.7265
Au 6.88596 8.93352 13.3052
Pt 11.255 10.2495 19.2503
Pt 12.1594 10.8997 21.8344
Au 6.84221 9.73665 17.827
Pt 7.76646 13.4998 14.5257
Pt 8.78782 9.59706 19.5373
Au 6.42318 13.6051 11.5459
Pt 9.62596 10.0133 17.0922
Pt 7.23196 14.3337 19.1141
Au 5.35707 12.5328 14.2312
Pt 8.62227 15.2501 12.7297
Pt 6.05888 14.5119 16.3165
Au 5.31568 17.0531 15.6981
Pt 10.2563 14.8886 14.7634
Pt 7.79496 16.4335 15.0603
Au 6.38341 19.0409 17.5301
Pt 7.65605 15.7591 10.3373
Pt 10.297 15.7595 10.6146
Au 6.70883 19.2039 14.7312
Pt 9.08085 17.804 11.522
Pt 8.97671 20.9386 14.4112
Au 11.3354 22.7826 11.3672
Pt 6.89424 17.3335 12.7546
Pt 9.1551 17.5506 8.91335
Pt 10.6586 7.97624 15.8454
Pt 12.7606 6.53121 16.5653
Au 10.4278 6.65093 11.4396
Pt 14.2593 11.7069 16.4375
Pt 14.127 7.24718 18.6216
Au 20.8427 10.2058 21.0643
Pt 8.93624 9.0257 11.5615
Pt 11.3285 8.98299 12.8273
Au 9.28435 9.36866 8.88658
Pt 9.36768 10.0499 14.1478
Pt 9.52708 12.5536 18.5659
Pt 16.3036 12.2736 18.2075
Au 12.3726 16.5949 15.5155
Pt 11.7108 12.8068 19.9053
Pt 11.3974 13.3765 22.4165
Pt 13.7983 11.0789 19.4586
Au 13.627 12.6076 23.8633
Pt 13.1236 8.72811 20.466
Au 10.257 15.8562 22.6265
Pt 7.56325 11.4869 12.7249
Pt 7.90457 11.2081 10.2423
Au 7.36999 13.446 8.81438
Pt 7.16747 10.8329 15.3112
Pt 11.1612 16.5569 12.9542
Pt 12.6319 11.5516 12.697
Au 14.9951 12.6788 13.7681
Pt 8.69034 14.5027 16.862
Pt 9.59275 15.648 19.0148
Pt 11.7919 15.2721 20.3301
Au 11.5564 14.6116 17.4086
Pt 7.17462 12.3553 17.2843
Pt 9.20193 13.9442 20.9261
Au 7.91193 16.4195 20.8742
Pt 11.6321 16.563 8.63947
Pt 12.1275 14.8854 6.71278
Au 10.1356 16.9013 6.46449
Pt 5.93169 15.1295 13.6998
Pt 11.548 13.8965 12.0207
Pt 9.11567 13.4385 10.8567
Au 16.1178 17.92 9.47037
Pt 12.3883 18.7246 13.6619
Pt 9.47534 18.2852 14.1174
Pt 9.8003 16.9208 16.5911
Au 16.9743 17.6785 12.2817
Pt 7.19714 16.5606 17.7155
Pt 8.7535 18.2426 18.9279
Au 8.29394 20.9024 18.5683
Pt 11.1797 19.119 8.04484
Pt 11.5539 18.3493 10.8393
Pt 13.7737 20.317 7.63814
Pt 14.3013 18.344 11.6614
Pt 7.83841 19.7954 12.3226
Pt 14.9813 20.3833 10.1152
Au 15.427 22.4389 8.45411
Pt 10.5742 20.259 12.3648
Pt 8.75269 19.3025 16.4795
Au 8.7739 22.18 11.8597
Pt 9.55632 20.0043 10.0326
Pt 13.2672 20.7809 12.2546
Pt 9.23355 7.42812 13.6674
Pt 13.808 8.94059 8.99742
Au 11.4719 5.97828 14.0291
Pt 11.8061 10.4903 15.0692
Pt 16.7363 7.30673 18.6152
Au 15.4215 5.5098 16.9377
Pt 10.4343 11.0775 11.1925
Pt 9.90776 12.0324 8.72778
Au 13.641 12.9609 5.32836
Pt 11.5363 8.75371 10.2283
Pt 9.89892 12.5117 13.3134
Pt 14.6448 10.1303 14.2539
Au 16.8689 13.0844 11.7415
Pt 15.2491 8.04632 16.079
Pt 12.9005 9.31389 17.1937
Pt 18.4761 9.18982 20.4809
Au 13.6009 15.0264 13.3381
Pt 15.7487 8.42812 20.6858
Pt 14.5849 10.3025 22.1863
Au 17.1875 9.62988 22.7648
Pt 14.6449 15.4506 6.04247
Pt 16.0276 13.2903 6.36578
Au 17.6322 17.963 6.07962
Pt 9.59595 14.7862 8.204
Pt 11.8012 13.9258 9.35961
Pt 14.0135 13.2968 8.09629
Au 14.1232 13.4 11.0126
Pt 15.5577 7.83799 10.5933
Pt 12.1949 13.1157 14.8505
Pt 15.349 9.57057 18.2424
Au 15.987 15.5341 10.7992
Pt 11.8931 11.9276 17.3636
Pt 11.9429 19.9885 20.8955
Pt 16.4432 10.9028 20.4272
Au 16.5916 15.1521 18.5176
Pt 14.0827 12.8753 21.3438
Pt 10.4262 17.7569 20.8385
Pt 16.2805 12.1672 22.9351
Au 13.9589 16.3503 18.017
Pt 12.9896 15.3989 22.7349
Au 12.2061 18.0827 23.0383
Pt 15.2037 17.8988 6.97949
Pt 16.418 20.0481 7.8618
Pt 18.7109 18.9097 8.23779
Pt 13.502 18.3291 9.13394
Pt 17.676 19.8145 10.5481
Pt 14.2228 15.7931 8.58629
Au 18.3829 21.6492 8.75775
Pt 13.0677 16.0514 10.9211
Pt 11.3731 19.0719 16.1649
Pt 13.7919 9.57112 11.6082
Au 14.7435 17.3102 14.0546
Pt 11.561 17.4417 18.4305
Pt 10.7812 19.9484 18.6441
Pt 13.5394 19.3192 18.8556
Au 14.2685 18.635 16.3966
Pt 10.1479 21.647 16.685
Pt 13.0548 17.4591 20.6819
Au 11.4731 22.5441 18.9829
Pt 16.7729 22.2818 10.8239
Pt 12.2666 20.7912 9.80616
Pt 18.0993 22.171 13.1911
Pt 14.0606 22.7454 10.7916
Pt 12.0331 23.3952 16.084
Pt 14.3139 20.7303 14.6861
Au 17.0671 24.3246 14.5252
Pt 11.6953 21.1621 14.5436
Pt 12.7937 21.1224 17.0529
Au 10.2085 23.307 13.9961
Pt 12.9218 23.1889 13.4847
Pt 15.4268 22.8132 13.0447
Pt 16.3586 9.23544 8.53644
Pt 17.2731 8.87995 14.2458
Au 19.0418 9.46789 8.09978
Pt 14.1975 5.85783 14.4559
Pt 16.7906 6.26923 14.7009
Au 17.7248 6.70073 12.2484
Pt 14.3579 10.9179 7.28312
Pt 11.6857 9.92117 7.85839
Au 17.3412 15.4142 5.33359
Pt 11.8009 12.3232 7.08397
Pt 12.5777 11.4062 9.74852
Pt 15.2005 11.1681 9.85909
Au 22.4488 11.5499 9.64472
Pt 13.026 8.18255 14.5617
Pt 18.0783 7.53003 16.4937
Pt 21.1758 12.662 20.2715
Au 16.6414 13.6673 15.8902
Pt 15.2873 7.764 13.0921
Pt 18.8078 11.9299 19.311
Au 22.8768 10.8559 19.1376
Pt 19.852 12.079 8.70585
Pt 12.7744 17.5461 6.54323
Pt 16.7909 15.7963 7.92209
Pt 16.421 13.404 9.01942
Pt 19.2784 16.3339 7.60058
Pt 20.3646 17.5228 12.1572
Au 21.2693 18.1371 8.08557
Pt 16.3985 10.1401 12.0598
Pt 21.2713 13.6746 10.4637
Pt 13.9719 13.6073 18.6329
Au 16.5984 15.1963 13.5665
Pt 18.6736 12.2294 16.6062
Pt 16.6954 13.4476 20.6308
Pt 17.6958 11.7146 13.9755
Au 14.1626 14.519 16.0142
Pt 18.7524 11.8076 21.8471
Pt 15.4875 14.6407 23.0601
Au 20.6197 13.7462 22.5949
Pt 20.2531 19.3077 10.2806
Pt 16.0575 20.3333 12.6158
Pt 18.836 19.5934 12.9654
Pt 18.5094 17.0559 10.1419
Pt 16.6446 19.0147 14.7895
Pt 18.6442 17.0207 14.298
Au 19.7787 21.7354 11.2363
Pt 19.2286 15.1494 12.0601
Pt 15.5472 17.6424 19.7307
Pt 21.3457 13.7823 15.7735
Au 16.4891 16.5401 16.1784
Pt 14.5868 15.2906 20.5837
Pt 14.4251 19.5421 21.627
Pt 18.0921 14.2193 22.807
Au 17.3529 16.7159 23.7506
Pt 14.9829 17.2205 22.5779
Au 19.6585 16.4536 22.089
Pt 16.7076 21.6622 15.3033
Pt 16.2527 22.7114 19.5203
Pt 18.7813 20.0451 15.7213
Pt 15.3015 21.2309 17.4136
Pt 13.8856 21.65 19.9992
Pt 16.1035 20.1101 19.6411
Au 16.658 23.9116 17.1902
Pt 13.9265 23.3744 18.0638
Pt 17.1941 18.7455 21.7119
Au 16.2041 21.4959 21.9284
Pt 14.5905 23.2843 15.5543
Pt 16.8815 19.0321 17.4734
Pt 18.1117 8.61678 10.5579
Pt 19.4582 7.47827 14.215
Au 20.502 7.76199 11.7724
Pt 13.0353 7.06379 12.009
Pt 20.5278 9.53932 18.4751
Au 20.9448 7.62098 16.5008
Pt 18.5025 13.7433 7.11784
Pt 18.7459 14.3615 9.64572
Pt 17.2583 11.3707 7.47959
Pt 19.1689 9.84893 12.7502
Pt 19.4192 12.3347 11.7664
Pt 22.0968 10.1692 16.3363
Au 21.0921 14.3107 7.82338
Pt 16.5785 10.56 16.0719
Pt 20.8822 11.9642 17.6804
Au 19.3896 7.1997 18.8416
Pt 20.9114 16.1958 9.80098
Pt 22.4917 15.6352 11.8086
Pt 17.8276 11.1691 10.0263
Pt 23.0121 12.0189 14.4355
Pt 21.0956 15.9861 14.1243
Pt 23.3429 12.4276 16.9995
Au 23.6526 13.0833 11.8598
Pt 17.9529 9.72074 18.0821
Pt 21.3485 14.42 18.336
Au 23.1767 16.673 18.7668
Pt 21.6384 19.8332 12.473
Pt 20.7866 18.5707 14.8534
Pt 23.4588 14.8304 14.2161
Pt 21.783 18.7298 17.4142
Pt 18.9614 14.9173 17.2338
Pt 18.9985 14.1448 14.5153
Au 22.693 18.1188 10.5536
Pt 19.1174 14.5904 20.0507
Pt 21.7217 15.2597 20.7216
Au 23.6466 13.6856 19.408
Pt 18.9984 17.6036 16.8429
Pt 20.4826 21.3563 14.1232
Pt 22.9483 17.7308 13.2732
Pt 18.109 17.5871 19.4309
Pt 18.3565 20.9186 20.3588
Pt 20.541 16.9977 19.1765
Au 22.8989 20.0789 15.0574
Pt 17.0992 16.0251 21.2085
Au 19.955 18.9371 21.0606
Pt 17.9889 21.6016 17.8369
Pt 19.5521 19.6253 18.4449
Pt 19.3768 9.72869 15.8435
Pt 20.3443 10.068 10.3643
Pt 20.3722 11.6368 14.5313
Pt 21.8 11.0836 12.2287
Pt 21.3111 13.6072 13.0895
Pt 21.4496 9.22088 14.0339
Pt 23.5684 14.9517 16.8338
Pt 23.3147 17.3423 15.7189
Pt 21.1957 16.3259 16.6368
Pt 20.8888 21.0655 16.7007
Pt 18.9926 22.7941 15.7545
