286
Atoms. Timestep: 20459
Pt 11.5806 11.6942 22.4388
Pt 9.16393 8.56869 14.7692
Au 6.73449 10.6003 18.7625
Pt 15.6246 10.7843 22.4565
Au 7.76704 14.8357 21.3133
Pt 7.9287 11.56 11.2525
Pt 11.329 11.3925 8.59569
Au 9.15387 9.96274 9.3916
Pt 20.329 8.70206 16.0327
Pt 18.9509 14.832 18.0791
Au 6.28034 13.5037 19.2475
Pt 10.2056 12.8043 11.0622
Pt 8.60253 13.7758 12.9228
Au 11.6762 13.0106 6.41333
Pt 16.6492 9.55594 13.7854
Pt 9.56933 10.732 16.2415
Au 8.41146 8.86804 12.1387
Pt 11.1646 17.5003 14.5084
Pt 9.7527 13.1435 15.2673
Au 4.47982 13.4069 14.7179
Pt 13.7722 12.7463 21.4033
Pt 6.7932 16.1847 18.7099
Au 6.28429 10.7041 13.2161
Pt 8.96749 18.6713 15.1541
Pt 17.6187 10.6314 11.442
Au 6.91821 20.081 15.9446
Pt 9.51344 20.0069 17.3023
Pt 12.3207 20.6482 20.5578
Au 19.129 22.1757 17.9523
Pt 7.0676 10.3421 15.7379
Pt 7.9491 14.8567 16.5006
Pt 13.2143 8.76686 16.3928
Pt 12.4037 6.85414 18.0061
Au 20.5831 12.1999 7.25461
Pt 11.935 10.8103 17.2707
Pt 15.7099 8.55478 20.6032
Au 24.3388 14.969 17.8939
Pt 8.96154 12.5952 8.78857
Pt 14.7708 8.29989 9.22096
Au 14.3023 11.9668 5.75624
Pt 9.00632 11.0839 13.6503
Pt 13.1141 12.8275 18.6797
Pt 17.4312 10.6659 20.3126
Au 14.2511 16.2551 12.1294
Pt 15.7525 8.61384 15.9136
Pt 13.3539 9.81366 21.5706
Pt 13.3356 9.25224 18.9554
Au 17.1151 15.6239 24.1487
Pt 17.5995 17.0574 21.8682
Au 4.44349 16.6216 15.1336
Pt 11.1786 13.9821 8.87772
Pt 8.83395 16.0974 14.3925
Au 6.60913 16.564 9.31152
Pt 6.08158 13.3239 12.4725
Pt 11.561 17.8427 17.1306
Pt 11.6213 11.0496 19.9903
Au 14.9888 13.9425 16.5054
Pt 15.3878 11.602 12.5109
Pt 13.0759 15.286 20.5446
Pt 11.0837 13.6162 20.5115
Au 15.5845 18.457 13.207
Pt 9.44512 10.3037 18.8278
Pt 5.58501 12.2213 16.897
Au 7.96861 8.52077 17.3621
Pt 7.07379 16.0607 11.9376
Pt 16.4424 13.5665 5.77562
Au 9.4138 17.6607 7.20044
Pt 10.6554 15.3395 16.4968
Pt 9.04011 17.2135 17.5112
Pt 6.40143 15.2262 14.2965
Au 22.5648 13.7046 8.70448
Pt 9.73475 22.1854 12.5637
Pt 7.13321 12.7649 14.8827
Pt 10.3137 18.9371 19.4788
Au 13.9853 13.6553 13.5068
Pt 8.71271 17.1215 20.3035
Pt 10.5264 15.9026 21.7855
Au 14.8292 21.6898 21.2641
Pt 7.8416 20.2842 13.2621
Pt 9.04338 17.8807 12.4591
Pt 9.90748 20.0081 8.45257
Pt 17.4258 21.404 10.2526
Pt 14.4741 19.504 7.95735
Pt 15.6541 16.7083 9.69141
Au 7.31455 19.2975 8.62533
Pt 13.1599 19.1228 12.5012
Pt 11.5843 22.7013 14.5447
Au 7.33406 18.9394 18.6024
Pt 10.9138 16.1283 19.1851
Pt 13.887 22.9289 16.1368
Pt 13.7978 8.23283 13.9111
Pt 13.8298 10.3181 7.74305
Au 13.1541 5.70557 13.3568
Pt 13.1167 10.0086 12.2559
Pt 11.1654 7.9208 12.8775
Au 11.0193 8.34463 20.0165
Pt 7.51149 14.0464 10.3527
Pt 10.6091 10.2859 11.5971
Au 10.509 7.79205 10.3754
Pt 17.3173 8.73381 9.70891
Pt 6.73944 17.322 16.3153
Pt 11.4595 9.84115 14.6027
Au 14.9668 13.8802 10.7267
Pt 18.4912 8.28393 19.9907
Pt 12.8365 12.0325 10.7566
Pt 14.6393 11.0255 17.1774
Au 12.458 13.0647 15.8391
Pt 18.5793 17.5579 16.8948
Pt 18.8426 12.8338 19.9942
Au 23.1692 16.0508 20.4802
Pt 8.91462 17.7308 9.88955
Pt 18.2657 13.4493 7.66049
Au 24.1536 15.2437 10.3354
Pt 10.5567 19.8242 13.0902
Pt 11.6155 17.0498 11.9974
Pt 11.1537 16.6443 9.36526
Au 13.1022 15.4338 17.8286
Pt 18.0204 15.6326 9.23539
Pt 8.07909 12.436 17.4916
Pt 19.051 17.0774 19.5268
Au 15.2553 22.0192 8.84605
Pt 10.6022 8.47527 17.2091
Pt 13.886 22.1371 18.6881
Pt 16.5358 9.43685 18.2292
Au 15.7763 16.0278 14.4577
Pt 18.6435 14.3892 22.3139
Pt 16.4792 12.9355 21.1147
Pt 17.7639 9.21756 22.3314
Au 17.5545 14.6073 15.7823
Pt 10.5872 12.9535 17.9766
Au 13.7366 12.1236 24.0255
Pt 8.79387 20.3411 10.8352
Pt 6.8038 18.6242 11.2384
Pt 19.9298 12.1052 11.8179
Pt 11.5854 15.8517 6.96973
Pt 20.3992 15.1141 7.68353
Pt 9.60975 15.4573 11.2011
Au 22.9978 19.304 15.9939
Pt 11.1487 19.1841 10.5239
Pt 5.43947 14.8034 16.8435
Pt 16.7208 17.5697 7.51555
Au 11.1402 14.8208 13.6378
Pt 9.31011 21.4526 15.144
Pt 13.849 19.1983 22.0642
Pt 14.2743 17.8097 17.7893
Au 13.6669 18.4842 15.217
Pt 14.5997 19.7058 19.5262
Pt 15.1718 14.2563 19.2825
Au 13.7285 23.786 13.2545
Pt 19.8523 9.49696 10.8264
Pt 14.1073 17.0749 7.16581
Pt 22.1557 13.15 13.405
Pt 15.722 19.2666 10.4074
Pt 13.6016 23.0231 10.6643
Pt 15.2338 21.2671 12.1202
Au 12.3587 21.3173 7.86132
Pt 13.8445 21.0911 14.4097
Pt 12.4239 20.0635 17.9974
Au 16.4262 22.8354 17.0769
Pt 13.4062 17.8976 9.93626
Pt 16.4002 20.6005 14.5733
Pt 18.6036 11.0124 8.95083
Pt 12.2679 14.5571 11.2552
Au 23.6473 12.5837 11.2403
Pt 16.6259 6.20255 16.4052
Pt 11.5655 7.02391 15.2551
Au 16.4102 9.42972 7.3259
Pt 11.6061 12.1637 13.3148
Pt 11.966 18.5809 7.76104
Au 15.8088 16.1593 5.31839
Pt 6.62719 17.9467 13.8274
Pt 13.9142 10.8776 14.6598
Pt 13.4449 15.3664 8.97796
Au 15.8889 6.3964 10.8958
Pt 17.936 7.83883 12.1038
Pt 14.1054 6.30961 15.807
Pt 20.5295 14.9568 20.4
Au 13.1956 15.8096 15.1458
Pt 16.1089 11.9772 7.93295
Pt 18.3956 11.7715 22.589
Au 22.3554 9.07241 14.4587
Pt 19.9739 13.4175 9.60749
Pt 12.2983 21.6129 12.3486
Pt 13.8648 14.5721 6.28747
Pt 13.669 12.8386 8.36385
Pt 19.4808 17.6492 7.86583
Pt 21.6397 13.5726 16.0134
Au 23.6584 17.7599 13.7379
Pt 13.2922 7.41216 11.3112
Pt 20.7982 8.74167 18.7297
Pt 12.6517 17.8994 20.0145
Au 17.204 16.7163 11.8137
Pt 18.6093 16.4799 14.0512
Pt 16.1623 13.161 23.6227
Pt 21.9718 10.6867 12.4099
Au 16.8193 13.9539 12.9672
Pt 20.8502 12.871 18.4146
Pt 8.86569 14.6493 18.938
Au 10.9975 18.6147 22.0785
Pt 21.2847 15.8781 13.4405
Pt 10.9827 21.8264 10.1402
Pt 17.7053 19.6548 12.2763
Pt 18.1346 15.7025 6.4628
Pt 16.0056 23.0631 14.3004
Pt 19.6852 13.8478 14.1071
Au 22.4296 16.6067 8.63714
Pt 17.3769 13.0324 10.259
Pt 12.9778 16.7893 22.6439
Pt 22.8524 16.265 15.8037
Au 19.0264 12.5081 16.4631
Pt 21.3941 17.8748 19.9432
Pt 11.4546 22.2386 17.0384
Pt 14.9137 11.137 19.7861
Au 14.3557 15.0929 24.5171
Pt 8.77359 12.3816 20.2579
Au 23.5971 17.6595 18.2175
Pt 17.0254 19.9813 8.1246
Pt 22.4715 17.0952 11.3982
Pt 8.94835 15.3466 8.52375
Pt 16.7467 21.1848 19.2531
Pt 16.9004 18.5079 18.9166
Pt 14.9141 20.4681 16.914
Au 16.1037 23.6431 11.4415
Pt 16.4511 19.4154 21.4027
Pt 12.3323 14.2296 22.9607
Au 10.2723 21.6479 19.2828
Pt 18.4508 22.0724 15.2865
Pt 11.568 20.1099 15.4675
Pt 15.8885 6.78698 13.6559
Pt 18.081 10.0407 15.9706
Au 21.6018 11.2256 9.70683
Pt 12.4805 9.44623 9.7723
Pt 15.2767 15.0767 22.0562
Au 13.453 7.10167 20.5602
Pt 20.268 16.3627 10.1387
Pt 20.665 11.2825 14.7164
Pt 18.2747 18.461 9.96191
Pt 19.1934 10.595 18.3335
Pt 15.4447 8.85963 11.704
Pt 16.2488 11.97 15.3137
Au 18.0758 11.2808 6.17584
Pt 18.2171 11.7132 13.7211
Pt 22.8466 13.5547 19.8802
Au 9.61877 13.4739 22.7448
Pt 15.193 10.8477 10.0031
Pt 24.0441 13.9752 15.3199
Pt 23.3107 11.4898 15.0243
Pt 18.4264 7.75178 17.4743
Pt 21.7404 15.4611 18.1752
Pt 19.9657 10.2239 20.9806
Au 19.5621 20.4369 8.43525
Pt 22.0625 10.9598 19.6046
Pt 19.0945 14.789 11.7634
Au 22.1694 19.6432 12.3255
Pt 19.8805 18.0469 12.2121
Pt 18.4526 19.0043 14.6758
Pt 23.4415 12.4696 17.5908
Pt 17.5841 20.241 16.947
Pt 16.8583 12.3762 18.1548
Pt 21.1047 18.7827 9.84244
Au 22.0217 20.1277 18.4755
Pt 21.0196 18.2067 14.5987
Pt 20.9098 12.5757 21.4646
Au 17.006 6.261 19.2501
Pt 23.7332 15.1564 12.9903
Pt 13.3902 20.5268 10.1462
Pt 16.2216 18.1661 16.0077
Pt 17.9887 22.183 12.7209
Pt 15.4276 17.475 23.1729
Pt 20.2516 15.7726 15.9519
Au 19.1705 19.2242 21.3603
Pt 17.4043 15.2059 20.1572
Au 20.26 16.797 22.2267
Pt 15.1923 17.0903 20.3816
Pt 19.3786 19.6036 18.778
Pt 14.9402 7.30324 18.1706
Pt 15.8624 14.7114 8.01536
Pt 19.6089 9.36312 13.4055
Pt 18.209 7.5449 14.7959
Pt 21.7394 14.4365 11.2012
Pt 21.6853 10.6555 17.02
Pt 21.0683 17.9034 17.3365
Pt 19.8094 20.6773 11.0995
Pt 20.2732 20.2358 16.2942
Pt 20.1083 20.6882 13.6643
Pt 16.3921 16.1031 17.8019
