286
Atoms. Timestep: 20328
Pt 7.70747 11.6596 14.7368
Pt 14.882 16.5405 11.0868
Au 22.0283 16.2195 21.4008
Pt 7.73341 18.1883 12.475
Au 8.06166 9.99743 19.9396
Pt 11.7435 19.8539 17.4861
Pt 10.6414 18.772 19.7458
Au 9.54027 7.51864 13.1793
Pt 12.9897 14.0021 15.1052
Pt 22.0752 13.1884 13.1453
Au 13.9564 10.9912 22.8837
Pt 16.4179 11.7117 21.7626
Pt 7.85478 15.233 11.9064
Au 12.6669 10.648 5.59705
Pt 10.9402 9.32589 19.8199
Pt 15.5935 19.2421 11.1655
Au 7.25141 20.4457 16.7315
Pt 10.5476 14.6113 12.5962
Pt 11.5499 11.5188 21.3226
Au 12.9632 18.3962 23.856
Pt 23.6191 15.2685 12.8248
Pt 12.1429 9.99827 9.89937
Au 22.033 13.8836 7.89608
Pt 15.7369 13.7964 11.3769
Pt 12.1328 7.15028 13.8955
Au 13.2981 16.1035 5.50014
Pt 13.2602 11.7485 7.97812
Pt 15.648 14.7902 16.1711
Au 17.7962 18.333 6.69117
Pt 8.38864 13.407 9.90239
Pt 10.4957 12.3132 14.278
Pt 10.8595 10.2109 7.68367
Pt 13.5596 9.78411 20.4721
Au 10.1253 12.1063 5.94425
Pt 13.5326 9.10058 14.7946
Pt 10.3131 7.297 15.849
Au 7.12624 10.7789 17.2954
Pt 17.2015 12.4922 17.2572
Pt 17.3869 17.4265 10.276
Au 23.494 16.7078 19.1671
Pt 6.71845 17.5906 17.2759
Pt 12.9338 7.13237 16.5906
Pt 10.9308 12.7119 8.49775
Au 15.3762 16.747 18.2892
Pt 17.6673 17.5341 19.5332
Pt 17.6968 7.19647 17.6455
Pt 17.9793 12.3116 11.734
Au 13.8143 24.0864 14.7014
Pt 15.9406 19.4518 19.6162
Au 24.2547 16.556 15.2827
Pt 14.7279 16.0591 13.7085
Pt 12.6229 19.4518 14.9644
Au 11.2676 7.69408 8.70435
Pt 10.6729 14.8801 15.3624
Pt 16.447 21.6296 10.4921
Pt 17.3412 9.92214 17.3802
Au 8.11838 16.1715 9.28385
Pt 9.66912 22.3558 13.2628
Pt 11.6811 20.8292 12.8533
Pt 13.3856 18.6726 12.537
Au 15.1764 13.0288 14.1024
Pt 15.7935 16.4373 6.52037
Pt 14.7799 20.4886 8.70789
Au 9.3995 20.5754 21.1448
Pt 19.5024 13.7656 13.4072
Pt 14.7428 21.4274 18.4211
Au 15.8284 23.5997 19.6263
Pt 6.33394 16.9276 19.8196
Pt 11.6137 21.5935 19.6642
Pt 12.4257 11.3042 15.9099
Au 16.2217 5.12577 13.0237
Pt 12.0683 16.6019 13.665
Pt 22.6259 12.5978 17.3896
Pt 9.22349 18.6248 17.4678
Au 19.2645 21.5019 9.84796
Pt 13.611 21.1182 11.019
Pt 18.3137 19.6476 11.5559
Au 15.3821 13.2893 23.7601
Pt 11.4297 15.1719 7.35577
Pt 13.1236 14.1666 9.62113
Pt 21.7002 10.2246 17.5114
Pt 21.0515 19.4955 10.6613
Pt 18.1045 19.3753 14.4379
Pt 20.3267 13.8605 20.8912
Au 18.697 7.85182 10.2765
Pt 18.055 9.73533 12.381
Pt 17.2864 21.631 18.5079
Au 8.62796 18.8609 9.69323
Pt 21.0922 9.21188 15.0201
Pt 17.7764 10.0364 20.1246
Pt 15.6074 12.5154 8.80144
Pt 13.4248 16.4733 8.36229
Au 8.84528 22.664 15.888
Pt 10.997 10.0786 12.206
Pt 19.2518 16.4799 13.839
Au 7.37992 19.4209 19.3672
Pt 19.5684 18.3678 8.83278
Pt 13.6403 9.28993 12.0969
Au 16.4719 8.10464 8.43376
Pt 22.2492 17.7371 17.0716
Pt 20.0755 21.3448 12.3973
Pt 10.5647 18.24 22.3653
Au 13.5928 16.8019 15.9686
Pt 20.4918 12.8157 11.0747
Pt 14.0957 12.5565 20.6948
Pt 18.0373 7.07993 12.7792
Au 17.2772 16.8824 15.7334
Pt 8.73656 16.8492 19.2146
Pt 9.05929 20.4153 11.7531
Au 14.9933 12.3455 5.5536
Pt 15.7539 8.5054 18.9628
Pt 13.2209 14.2421 12.3872
Au 8.70381 12.1108 21.4679
Pt 8.52054 15.9836 16.4745
Pt 17.412 19.8429 8.90442
Pt 14.2193 6.70234 12.2186
Au 10.7925 6.81508 18.4641
Pt 20.1987 18.3959 15.578
Pt 13.9436 7.57505 9.74297
Pt 20.5398 16.0388 19.1869
Au 7.621 20.7971 13.9628
Pt 13.2899 14.7454 17.7906
Pt 21.134 13.7217 15.5027
Pt 19.7689 11.4493 16.0429
Au 17.782 7.41798 20.3438
Pt 13.8611 18.6412 6.98147
Pt 14.0137 21.9365 20.8281
Pt 10.842 16.1768 20.5939
Au 6.99199 11.2805 10.8603
Pt 11.1917 22.5041 17.2651
Au 15.1461 6.00159 17.8653
Pt 17.0446 14.7703 13.6254
Pt 14.2622 14.278 7.22857
Pt 20.5632 16.3596 7.4626
Pt 13.3265 19.6325 19.612
Pt 13.8169 11.9759 10.875
Pt 16.2973 23.2349 14.3681
Au 8.35527 11.5717 7.89988
Pt 15.5495 10.3308 7.08755
Pt 19.6744 8.71265 17.1847
Pt 21.0804 15.4049 12.0808
Au 6.25491 13.2092 12.8979
Pt 18.4557 14.1211 15.761
Pt 17.6815 11.9058 14.3963
Pt 11.3149 12.5664 11.2135
Au 15.0864 6.71615 20.6962
Pt 11.8321 13.7097 19.8304
Pt 17.8027 11.6666 7.26197
Au 15.6881 18.1391 23.8614
Pt 15.8634 15.216 9.12647
Pt 19.5032 18.162 17.9609
Pt 19.3616 11.2074 18.5396
Pt 10.9331 17.6345 15.874
Pt 14.0377 9.72467 17.4578
Pt 15.6901 17.9448 8.55545
Au 8.93345 14.2662 7.38718
Pt 18.2052 15.1112 11.3004
Pt 9.76243 17.0031 11.3457
Au 9.15869 16.0488 23.118
Pt 11.1676 13.2011 17.2401
Pt 14.4224 15.8507 23.1217
Pt 9.90299 11.5928 18.9993
Pt 9.70122 10.9452 16.4783
Au 22.5856 11.659 9.79786
Pt 13.3187 9.02401 7.60947
Pt 18.5815 21.9991 14.4292
Au 11.4608 17.8248 6.46203
Pt 10.808 15.8892 17.8514
Pt 20.8657 20.8242 14.9196
Au 10.9519 21.889 10.405
Pt 20.1511 13.6124 18.0641
Pt 8.35593 9.07947 15.2309
Pt 17.9947 13.3974 9.3086
Au 24.2229 12.5809 11.9171
Pt 22.5553 17.6407 12.239
Pt 12.3992 13.2723 5.91229
Pt 11.6326 22.5954 14.7956
Au 17.8484 15.2506 18.1469
Pt 22.7329 14.2941 10.4362
Pt 13.6936 15.3584 20.4656
Au 22.8601 18.9476 14.6876
Pt 12.5796 11.4455 18.7094
Pt 19.686 17.7059 21.2442
Pt 9.37581 14.2102 19.239
Pt 8.07141 18.4575 15.1076
Pt 21.8678 16.9013 9.79172
Pt 18.1797 9.22341 14.9483
Au 9.30356 8.38582 10.5459
Pt 15.5936 11.189 19.1478
Pt 10.3587 13.979 21.9675
Pt 13.0038 17.7038 21.3016
Au 16.918 17.4702 12.8828
Pt 10.4773 14.8861 9.86233
Pt 12.7225 17.3646 18.569
Pt 17.4178 18.8723 21.8669
Au 18.2543 13.418 22.8289
Pt 20.0498 15.9846 16.585
Pt 9.57824 10.9297 10.1151
Au 18.0279 23.3892 16.6252
Pt 22.619 15.1988 17.0836
Pt 15.7032 10.9994 12.4272
Pt 19.6197 7.11286 14.9918
Pt 14.7403 19.664 21.9738
Pt 16.8477 14.0242 6.76526
Pt 19.4775 13.9392 7.07087
Au 8.82813 8.58043 17.8397
Pt 15.8765 8.34354 13.6629
Pt 18.9015 19.9517 19.723
Pt 16.355 6.26494 10.6508
Au 17.2561 16.0691 23.3246
Pt 6.71542 16.2218 14.4373
Pt 7.84713 15.0631 21.0084
Pt 14.5343 6.25536 14.8055
Au 19.9497 15.6417 22.9938
Pt 9.27137 16.5224 13.881
Au 19.07 9.44925 8.08198
Pt 11.4845 9.21096 17.3159
Pt 20.3206 8.50465 12.664
Pt 15.6665 8.1269 16.2754
Pt 17.073 19.017 17.2577
Pt 22.4749 14.2398 19.516
Pt 13.4867 21.6641 16.2774
Au 13.2143 23.6232 18.6218
Pt 11.1851 19.2201 10.8215
Pt 17.929 12.9669 19.9175
Au 6.08106 13.9132 15.8186
Pt 20.5298 18.8937 13.1438
Pt 16.0045 14.3935 21.4724
Pt 11.7647 7.617 11.35
Pt 8.50345 9.99634 12.7747
Au 18.453 15.929 5.5718
Pt 16.4876 20.9222 13.0468
Pt 12.9193 13.6408 22.6243
Au 16.7689 21.4793 21.2085
Pt 15.6331 10.6303 15.3094
Pt 18.2936 15.4838 20.8714
Pt 10.8143 17.3856 8.91018
Pt 21.7912 16.269 14.5441
Pt 13.4025 18.5825 9.80034
Pt 22.2426 10.6794 12.3015
Au 23.944 13.7573 15.0893
Pt 11.8579 15.9825 23.006
Pt 14.8004 10.0591 9.54406
Au 8.04041 17.9842 21.5983
Pt 17.4102 10.6224 9.76265
Pt 12.9693 11.5779 13.3884
Pt 8.83215 12.5364 12.294
Pt 20.0704 10.2689 10.6614
Pt 12.3041 16.4505 11.0221
Pt 16.2235 21.0834 15.8858
Au 12.3283 23.3909 12.3034
Pt 15.3903 23.432 16.8939
Pt 10.3198 18.7761 13.3829
Au 19.6043 11.3108 21.5513
Pt 6.88907 14.9779 18.2274
Pt 14.397 19.1433 17.0917
Pt 15.6305 17.0916 21.1328
Pt 17.1898 6.3836 15.1832
Pt 14.4979 12.4711 16.9186
Pt 10.8888 9.5081 14.6047
Au 15.068 23.3597 12.0088
Pt 22.4007 11.3894 15.0295
Pt 15.2862 18.8469 14.5416
Au 11.8393 20.087 8.27229
Pt 14.0952 21.4438 13.7461
Pt 15.5701 13.9512 18.924
Pt 21.4976 18.4739 19.6307
Pt 18.1222 16.0514 8.2234
Pt 13.1862 7.68434 19.0947
Pt 20.1921 14.9142 9.55607
Au 18.0147 23.0659 12.029
Pt 10.043 20.4101 15.446
Au 20.3294 9.07963 19.81
Pt 20.1296 11.9483 8.62261
Pt 21.5601 11.7682 19.6896
Pt 7.371 12.6085 19.2538
Pt 16.1112 8.61251 11.141
Pt 18.9382 20.7449 16.7475
Pt 9.36758 21.0414 18.3461
Pt 21.2435 20.0834 17.545
Pt 19.7147 17.3269 11.2428
Pt 20.0407 11.1342 13.4319
Pt 12.1101 20.257 21.8908
Pt 8.51415 13.2542 16.8617
Pt 15.7778 9.18668 21.5214
Pt 8.32967 14.1416 14.356
