286
Atoms. Timestep: 20319
Pt 7.05775 11.6325 19.1459
Pt 10.2204 8.58605 19.0571
Au 8.38001 7.70219 17.027
Pt 6.59636 10.1826 17.0314
Au 7.5488 8.99642 19.2823
Pt 8.09135 12.1331 15.8384
Pt 7.85604 9.53988 14.8346
Au 6.53243 9.85233 12.403
Pt 9.21281 10.2071 17.3503
Pt 9.24651 10.846 20.3444
Au 7.9556 12.9348 21.5126
Pt 6.40387 14.0103 14.5801
Pt 5.87674 11.3549 14.7386
Au 5.33899 12.5543 12.4265
Pt 5.97876 12.8485 17.0843
Pt 7.24787 14.267 19.0512
Au 5.50172 15.4618 16.8471
Pt 8.86394 16.4741 12.9744
Pt 6.16174 16.1163 12.9623
Au 5.73876 14.1159 10.0681
Pt 9.15106 14.02 14.1211
Pt 7.32284 16.8185 15.3036
Au 7.07311 19.4477 15.9823
Pt 7.24113 16.2042 10.5719
Pt 7.89623 18.4765 9.57432
Au 5.70889 18.2563 11.0954
Pt 9.52531 19.0871 12.0152
Pt 8.35243 20.8681 13.8425
Au 7.3942 20.5536 11.2304
Pt 7.13414 18.5744 13.2029
Pt 9.84837 20.1268 9.66356
Pt 10.1007 8.24852 15.0814
Pt 13.8759 7.43552 17.109
Au 10.8125 7.08866 12.7336
Pt 11.2508 7.14971 17.2089
Pt 12.9177 8.78026 19.1181
Au 13.9964 8.57625 21.6434
Pt 9.54993 9.50091 12.6304
Pt 12.0153 9.64116 13.5529
Au 8.29407 9.43808 10.2705
Pt 10.1903 10.9542 14.9827
Pt 9.17356 12.6858 18.1236
Pt 11.8033 9.56617 16.6975
Au 10.774 13.5411 16.1538
Pt 11.3825 11.1242 18.8696
Pt 11.1015 11.874 22.1031
Pt 13.441 11.1499 20.653
Au 13.2804 10.7958 23.2799
Pt 11.4687 9.52684 21.1689
Au 12.6958 13.4155 23.9138
Pt 7.18405 11.8889 10.542
Pt 9.06232 11.5377 8.62517
Au 7.13194 13.3397 7.84592
Pt 8.10816 11.7691 13.204
Pt 9.99855 16.1934 15.479
Pt 11.3552 12.4205 13.2405
Au 13.1996 13.6491 11.6829
Pt 8.06243 14.6623 16.576
Pt 9.89485 15.4891 18.2527
Pt 10.2011 13.4358 20.2355
Au 12.5491 15.6594 16.44
Pt 8.62743 15.4986 20.8218
Pt 10.4042 14.4026 22.615
Au 10.0253 17.0844 22.578
Pt 9.72617 16.9329 10.5814
Pt 8.42506 15.9923 8.16276
Au 10.5401 16.0073 6.22826
Pt 7.56081 14.0897 12.1013
Pt 10.3145 14.4398 11.7102
Pt 8.73309 14.0043 9.76969
Au 14.6003 17.7299 9.41004
Pt 11.7624 15.139 13.8053
Pt 9.33874 18.6337 14.6634
Pt 9.35355 18.1188 17.1986
Au 13.9178 18.3171 11.9569
Pt 7.41967 16.7955 18.2185
Pt 9.27028 17.7885 19.8558
Au 7.86167 19.7637 18.5817
Pt 10.0689 18.0518 7.99169
Pt 11.9491 19.983 7.92129
Pt 14.3342 19.2412 7.19698
Pt 11.8643 18.3929 9.98553
Pt 9.86999 21.7624 11.7689
Pt 13.889 20.2475 9.81416
Au 13.9728 22.0528 8.00658
Pt 11.489 17.8527 13.2322
Pt 9.59337 20.7851 16.3493
Au 9.54327 23.1627 14.021
Pt 11.6706 21.9107 9.69538
Pt 12.0712 20.3248 11.817
Pt 12.5447 7.30833 14.7926
Pt 12.3605 8.48857 11.1308
Au 13.573 6.32179 12.4637
Pt 14.0705 9.43335 15.3595
Pt 15.2633 7.59384 19.3343
Au 16.4377 6.37441 17.1981
Pt 12.4427 11.0688 11.1041
Pt 11.5529 11.4572 7.56302
Au 13.9692 11.6158 6.44174
Pt 10.8365 9.84006 9.52181
Pt 9.77367 11.6927 11.2104
Pt 15.5585 11.5606 15.2722
Au 15.6661 13.33 10.3822
Pt 15.9973 9.17996 17.2175
Pt 13.9074 10.9023 17.8335
Pt 17.9099 8.21983 19.1901
Au 12.7678 11.8969 15.5514
Pt 15.7736 10.1076 19.696
Pt 15.7894 10.6382 22.1971
Au 16.6462 8.03235 21.59
Pt 10.9948 15.575 8.87959
Pt 12.4394 14.0377 7.08797
Au 16.7331 18.4849 6.03923
Pt 9.80517 13.6791 7.31732
Pt 11.2795 13.0634 9.58733
Pt 13.6539 12.377 8.98158
Au 13.6351 15.1395 9.18196
Pt 14.0878 11.4472 13.1545
Pt 14.3861 13.5334 16.9844
Pt 16.357 12.042 17.8434
Au 15.0151 15.7504 11.8034
Pt 12.1386 13.5973 18.5009
Pt 11.2932 15.8924 20.4638
Pt 14.6707 13.1237 19.6262
Au 16.5489 14.9526 18.8337
Pt 12.7303 13.7803 21.2244
Pt 12.5783 15.935 22.8548
Pt 17.0236 12.4887 20.4653
Au 13.771 15.7476 18.868
Pt 15.0289 13.0417 22.4505
Au 14.8211 15.3099 24.0417
Pt 15.0693 16.621 7.02433
Pt 16.3454 20.4113 8.15482
Pt 17.2767 17.9253 8.53084
Pt 12.5804 17.2306 7.53267
Pt 16.4402 19.4965 10.5772
Pt 16.3123 15.6843 9.2831
Au 18.8235 19.7487 7.31872
Pt 12.2741 16.1806 11.3131
Pt 11.6888 18.3236 15.8748
Pt 14.117 14.0594 14.3875
Au 13.9811 16.8715 14.3387
Pt 11.6951 17.5733 18.5081
Pt 10.5556 20.0635 18.7696
Pt 13.2071 19.6355 19.1095
Au 14.1276 18.0649 17.1296
Pt 11.1986 18.9335 21.076
Pt 13.2134 17.5476 21.0494
Au 11.9679 21.3869 20.9414
Pt 15.942 22.0874 10.1332
Pt 13.6426 22.8187 10.9018
Pt 17.3985 21.5095 12.2703
Pt 14.6513 20.953 12.3357
Pt 11.4048 22.8298 15.7411
Pt 13.6833 19.5676 14.4833
Au 15.5349 23.4484 12.9733
Pt 11.1174 20.6358 14.1848
Pt 12.3116 20.6658 16.7818
Au 11.3816 22.6012 18.4843
Pt 12.0213 22.7963 12.8874
Pt 13.7169 22.2217 14.6905
Pt 14.7882 7.89818 10.4303
Pt 19.1626 8.87297 14.2744
Au 17.2936 6.9182 10.0109
Pt 15.1494 6.91959 14.8373
Pt 18.3938 8.06416 16.6618
Au 17.9133 6.38534 14.5891
Pt 16.0785 11.5789 8.10644
Pt 16.3567 9.26407 8.95164
Au 17.4451 13.0022 6.02578
Pt 13.5126 9.79795 8.82338
Pt 15.0969 10.7191 10.7843
Pt 17.0381 9.25548 11.7448
Au 17.8611 11.5654 10.5244
Pt 14.4588 8.845 12.8103
Pt 17.882 10.671 16.0245
Pt 20.5021 9.7173 19.6585
Au 16.2521 13.2161 13.0051
Pt 16.5937 9.02636 14.414
Pt 18.3789 10.6916 18.588
Au 22.796 9.99563 18.2194
Pt 15.2276 13.9838 7.27727
Pt 17.58 15.8053 6.87991
Pt 19.6853 14.2856 7.10953
Pt 17.6386 13.6437 8.57341
Pt 19.1812 15.8963 9.33693
Pt 19.9107 16.8831 11.8891
Au 19.9842 17.1695 7.20456
Pt 18.1502 14.429 11.2698
Pt 16.5215 15.8064 13.9491
Pt 17.0552 13.6261 15.7392
Au 18.9269 14.3743 13.742
Pt 18.657 13.4923 18.1356
Pt 18.7212 14.4935 20.6847
Pt 20.7596 11.9405 18.1304
Au 18.5796 15.7685 16.2737
Pt 18.1863 10.0906 21.1634
Pt 17.0424 14.9767 22.6913
Au 18.0853 12.4719 22.8823
Pt 19.5316 18.5682 9.62191
Pt 16.2939 18.7065 13.0527
Pt 18.7911 19.2738 11.9672
Pt 17.3997 17.0531 11.2632
Pt 16.2599 18.4874 15.5562
Pt 18.5189 17.3682 14.1085
Au 18.5974 21.1397 9.80637
Pt 15.5131 15.8086 16.3957
Pt 15.3436 17.8349 19.7737
Pt 21.0112 14.1638 19.4584
Au 17.0608 17.5099 17.828
Pt 14.9583 15.3821 21.2126
Pt 14.4183 19.9349 21.4069
Pt 19.517 15.8591 22.6479
Au 17.5311 16.8514 20.804
Pt 15.4121 17.5985 22.5346
Au 17.861 17.7162 23.4613
Pt 16.0636 21.0697 14.5359
Pt 16.0702 23.181 15.8831
Pt 18.3582 20.0418 14.4794
Pt 14.8697 20.7392 16.9001
Pt 16.2136 22.7659 18.3914
Pt 16.0344 20.1913 19.1591
Au 18.321 22.9355 14.3808
Pt 13.9842 22.0337 19.4439
Pt 17.2156 19.5155 21.4427
Au 16.0859 22.0638 21.1653
Pt 13.6975 23.1206 17.132
Pt 17.5105 20.5529 16.9863
Pt 18.8086 9.05944 9.58785
Pt 18.9826 7.3986 12.1011
Au 21.2131 8.18504 10.5273
Pt 16.3135 6.8733 12.4892
Pt 22.3895 9.03178 15.6221
Au 20.6573 6.96447 15.3475
Pt 18.8053 11.4083 7.93238
Pt 19.9468 13.302 9.65949
Pt 20.7416 10.784 9.62114
Pt 19.6676 9.93299 11.9002
Pt 20.3227 12.4563 12.0845
Pt 22.3638 11.6986 16.1454
Au 21.4371 12.3398 7.53145
Pt 18.0083 11.3426 13.4567
Pt 20.2834 9.89441 16.6825
Au 20.8352 7.69823 17.9935
Pt 21.7167 14.9077 8.66193
Pt 21.328 14.8022 11.628
Pt 22.4744 12.7803 10.0498
Pt 21.5968 13.5098 14.2572
Pt 21.005 16.0449 14.2619
Pt 23.1719 13.3556 17.9559
Au 23.7076 15.288 10.6648
Pt 19.5703 12.5356 15.6671
Pt 22.3184 11.9229 20.1789
Au 23.4126 14.3912 20.5609
Pt 21.6426 17.093 9.88265
Pt 20.7054 18.7533 14.0259
Pt 23.5217 15.3062 13.4347
Pt 21.1919 17.0369 16.6529
Pt 19.528 16.3515 18.8017
Pt 20.9607 14.4198 16.8099
Au 21.4685 19.6288 11.3079
Pt 19.7373 12.0734 20.6785
Pt 21.368 16.2726 20.862
Au 21.1645 13.7652 22.1861
Pt 19.2688 18.6598 16.554
Pt 20.1099 21.296 12.9313
Pt 22.5102 17.4181 12.3325
Pt 18.6055 19.052 19.2174
Pt 18.2306 21.6491 19.6038
Pt 21.2196 18.4145 19.0031
Au 22.5948 20.4556 13.9588
Pt 19.714 18.1699 21.4069
Au 20.4114 20.5626 20.6882
Pt 18.5671 22.7826 17.07
Pt 20.2021 20.8172 18.0464
Pt 21.5483 8.4334 13.1866
Pt 22.3163 10.532 11.69
Pt 20.8798 10.852 14.105
Pt 23.4784 10.7693 13.9745
Pt 23.3241 12.8976 12.4183
Pt 24.0782 13.1939 15.0144
Pt 23.2658 15.3939 16.0602
Pt 23.0686 17.7446 14.856
Pt 22.6207 16.0502 18.5406
Pt 21.9081 19.4972 16.4831
Pt 20.3016 21.319 15.5398
