665
Atoms. Timestep: 20000
Pt 22.9079 13.9809 10.5125
Pt 16.1554 17.9065 11.5939
Pt 10.0349 22.9406 8.87945
Pt 18.6482 12.2359 6.07681
Pd 9.86189 24.4313 10.7583
Pd 9.50889 6.56405 9.77848
Pt 17.443 25.8274 19.2506
Pt 12.1394 24.1802 17.3578
Pt 10.041 5.1199 11.9077
Pt 23.896 17.6551 14.3817
Pd 13.749 23.8536 23.2042
Pt 7.37047 23.8173 14.9366
Pt 8.8983 10.5326 10.6414
Pt 3.83637 17.0723 9.36322
Pt 15.8761 3.86007 19.7915
Pt 16.5066 23.4333 19.4656
Pt 13.7461 11.1804 11.9742
Pt 11.3988 11.4542 7.93201
Pt 24.0687 12.3255 23.4711
Pd 19.341 14.3435 27.8549
Pd 13.1011 16.3541 0.231866
Pt 20.9994 18.5858 19.8283
Pd 24.0724 15.6222 6.41732
Pt 25.2801 16.3095 13.1104
Pd 26.1312 11.297 19.2107
Pd 10.84 4.07511 17.4847
Pt 14.454 13.6718 5.57415
Pt 24.3654 12.2466 11.7855
Pt 16.5295 18.4377 23.8959
Pt 18.2901 21.5845 7.88392
Pd 14.7825 7.72259 3.65278
Pt 9.16894 16.3485 17.7846
Pt 7.46201 13.8882 5.42363
Pt 13.5127 5.29786 20.796
Pt 16.3154 15.3091 10.0094
Pt 15.3114 20.8795 4.17283
Pt 6.38522 19.8636 11.4172
Pt 13.8523 21.9542 5.71059
Pd 5.67855 6.8326 10.5799
Pt 19.1586 19.7622 2.82811
Pd 9.04893 24.516 21.9204
Pt 7.97392 21.942 17.2804
Pt 15.6882 2.88618 17.1259
Pd 12.3019 6.73822 4.7792
Pt 21.1789 16.2037 9.7116
Pt 12.2188 6.27438 22.6053
Pt 7.86696 21.9789 10.586
Pt 26.7958 14.3094 15.1697
Pd 20.5093 26.9258 19.9682
Pt 20.7174 26.1645 14.0396
Pd 23.0635 6.22825 9.88887
Pt 21.2571 12.6791 16.0302
Pd 14.2281 10.2547 3.02208
Pd 11.7265 26.48 17.5162
Pt 14.3028 6.03061 15.7122
Pd 3.13551 13.8815 19.4113
Pt 19.3798 22.1717 10.6281
Pt 18.9498 11.0329 21.7403
Pt 9.44495 15.6325 26.1896
Pt 9.67046 23.4797 16.5555
Pt 13.4694 15.3362 11.7731
Pt 17.3372 24.3091 11.1828
Pt 10.2996 19.0432 6.83056
Pt 11.6839 7.81489 17.3869
Pd 12.6159 4.91293 6.6843
Pd 16.7091 6.70863 8.47598
Pt 19.8884 5.27098 14.7856
Pt 18.7594 26.7887 12.6798
Pd 8.07889 5.3391 6.33753
Pt 24.2444 16.5839 18.7059
Pt 23.2812 10.0673 19.3883
Pt 7.9311 14.0677 15.2109
Pt 7.72482 24.7529 17.4506
Pt 15.3025 9.44804 8.11187
Pt 14.6955 3.74815 10.6963
Pt 18.0984 4.29011 18.3267
Pt 25.2699 9.74411 12.467
Pt 16.8434 6.74269 14.4948
Pt 13.5526 3.79142 18.0626
Pt 19.2793 18.8768 15.0448
Pt 8.19999 18.9774 21.5382
Pd 7.11361 6.88667 16.2465
Pt 17.5637 15.8239 15.3152
Pt 6.98811 13.2332 21.6761
Pt 18.6477 15.6569 4.52339
Pt 2.45305 15.175 10.3657
Pt 21.2689 15.144 4.62681
Pt 22.9619 10.1091 12.8587
Pt 17.141 12.7143 2.30041
Pt 15.2316 20.655 23.8468
Pd 16.872 20.2136 2.44052
Pt 5.55468 14.0246 7.18932
Pt 12.1205 14.1722 6.53567
Pt 8.25099 24.208 12.6134
Pt 19.6834 8.10659 8.08609
Pt 5.96085 16.7339 14.3419
Pd 4.16671 10.8766 11.0033
Pt 12.9265 19.6637 15.854
Pd 12.5864 11.8891 2.08752
Pt 12.3542 4.98033 15.2956
Pt 15.1192 15.6693 16.5767
Pt 16.1915 9.88274 15.8009
Pt 12.0799 13.2527 11.854
Pd 4.53434 21.5717 8.33388
Pt 10.1289 15.2012 13.3726
Pt 8.36116 17.7364 15.1313
Pd 20.669 25.3803 7.64959
Pt 14.0825 14.8327 3.00447
Pt 14.1571 5.48521 8.43182
Pt 13.8785 23.9104 15.4832
Pd 25.0673 20.2184 20.1151
Pt 6.94055 17.9791 6.53281
Pt 15.7391 16.3675 13.5306
Pd 20.521 22.3721 5.88257
Pt 15.7131 21.6612 21.6832
Pt 15.7972 17.2282 19.2845
Pd 13.0597 15.9662 28.0847
Pt 23.7605 19.3743 12.2887
Pt 14.9051 21.6229 15.1725
Pt 13.4422 20.5992 18.0763
Pt 5.04908 16.6553 7.01255
Pt 20.8938 12.3705 10.5316
Pt 16.2058 10.2807 10.9741
Pd 12.3191 2.86238 9.82079
Pt 10.6585 16.094 7.96039
Pt 22.1673 13.1749 23.9909
Pd 8.40053 14.798 10.3479
Pd 11.9059 11.3988 28.2141
Pt 23.6174 12.0066 17.8797
Pt 4.01499 19.434 10.5803
Pd 10.3866 5.10529 20.3986
Pt 20.0468 11.8955 8.57582
Pt 10.2949 7.24753 22.5232
Pt 11.6683 14.0088 22.9069
Pt 19.07 19.0836 24.936
Pd 20.6674 3.55062 9.84804
Pd 14.5908 9.88687 27.3656
Pd 8.92242 19.1624 1.71664
Pt 11.3257 17.195 26.8488
Pt 20.8748 11.9104 18.493
Pt 16.8403 11.6748 17.8821
Pt 9.52985 21.4662 6.97989
Pt 14.0898 14.9825 18.9987
Pt 5.70946 19.6296 20.1587
Pt 8.5494 16.28 5.96613
Pt 6.2852 11.1278 20.3176
Pt 17.1761 15.6667 2.33739
Pt 10.9224 9.12268 24.3704
Pd 18.6537 24.6518 6.4005
Pt 22.2398 14.1277 18.2594
Pd 25.2665 10.0104 16.9863
Pt 11.1204 11.559 11.0486
Pd 16.2837 14.7127 28.1159
Pt 14.2263 13.0658 13.6318
Pt 23.792 20.269 14.7804
Pt 19.6054 14.9357 11.0315
Pd 26.3718 13.5455 22.1488
Pt 7.36023 9.03297 12.7496
Pt 7.9087 14.0048 18.016
Pt 8.78779 23.7091 6.71493
Pt 12.4558 7.36115 24.7768
Pt 8.87581 17.5169 24.1627
Pt 12.3155 4.32182 11.5858
Pd 8.69498 5.75098 17.8453
Pd 3.32491 19.5106 8.00778
Pd 23.7238 18.1862 23.465
Pd 13.5128 25.6367 13.3475
Pt 12.8319 6.863 13.5654
Pt 11.0662 20.7953 13.4726
Pt 7.21857 11.7144 13.3056
Pt 12.1151 15.4078 25.0966
Pt 22.3528 15.8034 22.7613
Pt 15.4022 25.5229 15.7363
Pt 13.9744 19.635 13.5761
Pd 2.23881 18.1104 12.2659
Pt 25.6811 13.1706 10.0156
Pt 14.3149 17.5391 24.6655
Pd 9.86843 23.4905 4.21191
Pt 12.8789 10.6356 25.6639
Pt 11.3671 20.8122 5.11161
Pt 18.8692 12.8231 12.6433
Pt 9.32701 8.1186 17.6953
Pt 24.5528 13.7065 14.0319
Pt 11.9177 11.6645 23.0708
Pt 21.5892 6.69957 21.1931
Pd 6.32795 16.6052 4.43873
Pt 15.7352 20.7185 11.6554
Pd 14.5595 24.8986 18.35
Pt 4.88776 15.6658 11.0971
Pt 11.3485 9.67127 3.72472
Pt 12.36 14.5855 14.3687
Pt 22.4103 14.9742 15.1462
Pt 17.7148 21.7021 20.438
Pt 21.0044 18.0865 13.0727
Pd 24.33 7.35084 17.213
Pt 20.567 9.12046 22.8487
Pd 24.6095 13.2413 25.7333
Pt 18.6892 23.6509 13.115
Pd 2.09822 12.8446 8.86622
Pd 4.84853 9.47079 18.4925
Pt 17.8407 21.0801 15.975
Pt 21.1491 11.1117 6.48385
Pt 26.091 18.7148 13.6231
Pd 9.63627 4.3269 7.70202
Pt 19.5383 15.3464 7.91759
Pd 6.69685 7.81333 18.8443
Pd 3.47841 10.2757 16.2226
Pd 8.88097 18.7016 26.5534
Pt 19.1333 13.252 16.7546
Pt 8.75305 9.40209 22.673
Pt 20.2364 25.0352 10.6825
Pt 12.3147 18.7496 11.1598
Pt 12.557 22.9713 9.72923
Pt 14.4532 14.9742 26.1405
Pt 16.4072 5.38001 16.5566
Pt 17.6958 4.55037 13.8302
Pt 8.97069 11.9316 19.576
Pt 7.1428 11.7708 5.86603
Pd 4.6323 20.9027 13.5312
Pt 17.7283 18.2102 16.9467
Pt 21.4279 19.8691 10.7216
Pt 11.4466 22.0276 18.6389
Pt 25.1196 15.8006 10.7886
Pt 13.0942 16.7243 15.8017
Pt 17.1546 14.8616 12.4846
Pt 9.6494 8.49054 11.4755
Pt 19.1375 21.5597 18.29
Pd 21.0876 9.09668 15.0154
Pt 7.5374 20.3559 5.97064
Pt 15.5706 23.5517 12.6046
Pt 18.6066 21.9083 4.00344
Pt 11.2673 15.5827 10.2801
Pt 12.6903 19.6791 25.8844
Pt 20.3286 4.00691 17.2134
Pt 8.34634 14.9751 20.3812
Pt 10.1676 10.3763 26.6624
Pd 6.76121 12.3051 9.55364
Pt 15.2522 10.7324 19.0776
Pt 19.9886 9.95428 10.9157
Pt 16.1074 3.0146 12.5179
Pt 17.0491 8.00695 11.888
Pt 16.1247 18.6741 14.8515
Pt 11.0533 9.11617 15.3533
Pd 7.68407 6.47327 12.3785
Pt 11.9828 23.9753 12.6152
Pt 8.94134 23.627 19.3121
Pt 11.7047 16.9271 18.2359
Pd 16.4335 13.3878 14.9874
Pt 17.0554 1.75873 14.2617
Pt 12.4259 8.74086 22.3876
Pt 20.0043 17.6718 10.9327
Pt 25.8193 17.2181 15.8929
Pt 12.2535 6.9325 11.1045
Pt 20.6619 13.9452 6.35901
Pt 21.1662 23.7297 12.5489
Pt 15.901 20.0504 19.7524
Pt 17.5273 20.9131 24.8012
Pd 19.435 7.27164 24.3611
Pd 18.8496 10.5921 28.1697
Pt 10.7165 17.7979 16.2598
Pt 22.0365 22.3594 11.0613
Pt 11.2924 9.35753 6.18385
Pd 5.56418 22.5054 10.6834
Pt 12.7888 20.0438 23.5242
Pt 24.0689 15.2665 20.9828
Pt 18.1047 11.7315 15.2135
Pd 17.0525 4.456 9.64641
Pt 18.4843 17.5405 13.0383
Pt 20.6783 12.7112 4.24089
Pt 22.5825 8.82803 21.6427
Pt 21.4558 22.0223 8.20182
Pt 13.9522 9.97522 5.53484
Pt 20.6053 12.871 20.8948
Pd 25.4868 8.38268 19.311
Pt 10.9118 18.0581 9.3002
Pd 12.1581 21.62 2.79893
Pt 10.3994 20.4197 16.9303
Pt 8.61614 17.2378 8.65084
Pd 15.1675 23.494 4.06322
Pd 7.09256 15.4917 24.6749
Pt 12.1906 6.05013 18.673
Pt 22.1799 9.26237 16.9401
Pd 22.8808 17.1985 4.079
Pt 8.46105 7.84234 6.8636
Pt 21.1292 4.4798 21.5418
Pd 4.64257 11.7107 8.28685
Pt 18.0732 13.7398 8.88343
Pd 15.7492 24.5547 21.854
Pt 11.6706 22.0387 15.4353
Pt 22.6195 4.88031 18.3902
Pt 10.4771 6.36837 15.8364
Pd 22.5058 24.3879 18.9254
Pt 7.62949 8.06807 9.37087
Pt 22.0589 4.72917 14.1143
Pt 23.7846 18.3582 16.8315
Pt 13.8218 17.1189 9.86692
Pt 9.86855 14.2356 5.77847
Pd 17.7422 8.49941 9.78052
Pt 14.3117 3.98321 22.7051
Pd 18.3104 25.1964 21.5381
Pd 19.5733 2.22923 22.2313
Pt 15.757 15.791 4.78453
Pd 3.51155 18.4608 14.4753
Pt 12.6306 18.9044 4.84849
Pd 21.1511 21.512 23.6873
Pd 23.9227 22.9772 12.87
Pt 13.2766 16.23 5.54864
Pt 17.7515 8.61598 18.0512
Pt 7.17051 14.9599 12.6973
Pt 6.00251 14.7208 16.0664
Pt 23.254 22.2878 20.5803
Pt 19.5304 20.1015 6.02991
Pt 4.47594 15.7464 18.4132
Pt 18.625 4.09961 20.8992
Pd 25.9956 18.8137 18.0768
Pt 14.8744 12.3507 3.62272
Pd 26.8035 11.5994 11.465
Pd 3.01814 13.0372 15.0541
Pt 17.0464 21.7946 13.5832
Pd 3.11986 14.9066 7.30536
Pt 14.7283 6.35496 23.6522
Pt 20.8759 11.1163 24.1471
Pt 13.7058 18.0844 18.8517
Pt 16.6816 7.87976 25.038
Pt 6.98299 22.3314 4.64019
Pt 6.31842 12.2288 18.3735
Pd 22.0799 11.3536 27.1243
Pt 12.0556 21.4852 21.3427
Pd 14.1387 19.5252 2.09591
Pt 10.1739 13.1831 9.44211
Pt 18.4248 3.42346 15.7494
Pt 7.19701 16.9596 11.2081
Pt 15.2615 13.1334 11.3405
Pt 21.7578 18.0402 15.5545
Pd 17.867 17.9133 21.9526
Pd 14.0855 14.0695 21.3475
Pt 8.772 19.5787 10.2281
Pt 9.83225 21.636 21.6901
Pt 19.3562 10.5546 17.0061
Pt 20.7764 21.3202 21.1547
Pt 22.5536 11.1979 21.7344
Pd 13.658 12.5203 18.8655
Pt 18.4274 10.0277 12.7049
Pd 19.7047 14.0399 2.35082
Pt 25.5996 11.5541 14.3597
Pd 21.6015 21.0539 3.28691
Pd 4.96597 9.27986 9.01042
Pt 7.62219 16.68 21.7948
Pt 5.05747 14.4172 22.834
Pt 17.1879 25.1167 14.0511
Pd 3.10963 16.2799 16.0143
Pt 14.4942 19.8038 6.77751
Pd 6.35581 9.11358 15.2497
Pt 7.19496 22.3496 20.4286
Pt 12.6787 9.21125 8.11519
Pt 11.9466 9.1806 10.2346
Pt 14.982 18.29 16.8804
Pt 21.695 20.6396 16.4035
Pd 2.38162 14.2739 22.64
Pt 16.5334 15.2764 20.5755
Pt 21.9597 20.2161 6.65066
Pt 10.6383 21.7453 11.1366
Pt 19.6194 12.5741 25.6796
Pt 21.6943 6.40297 15.9317
Pd 14.9834 20.6604 26.5147
Pt 14.659 15.4496 23.38
Pt 11.7025 22.3251 7.05976
Pd 13.6413 2.4061 20.4226
Pt 18.915 6.36385 10.9025
Pd 18.9802 16.8806 27.4074
Pt 17.9599 10.1238 7.67923
Pd 24.1113 7.03352 21.0324
Pd 11.2786 15.2706 20.117
Pt 11.854 20.4119 9.32461
Pd 15.3624 12.2307 28.1577
Pd 7.85709 6.80674 21.2672
Pt 5.30492 13.7582 13.8399
Pd 15.6153 27.3531 17.4591
Pt 6.04103 12.9951 11.6184
Pt 22.4168 15.5388 12.3969
Pt 18.1039 19.0606 19.3235
Pt 22.9897 18.0579 8.28711
Pt 17.1978 20.1874 5.66261
Pt 13.2202 2.32063 15.8405
Pt 14.6917 22.4728 17.613
Pd 24.2484 5.59767 14.9802
Pt 4.02267 13.73 9.72958
Pt 20.5536 5.72644 18.919
Pt 17.6537 8.1668 22.8223
Pt 21.7598 18.7099 24.8491
Pd 6.90182 24.4497 8.91803
Pt 7.04327 20.9247 22.3085
Pt 12.0477 24.5898 6.85268
Pt 13.815 20.0591 20.7545
Pd 12.9327 22.0125 25.1031
Pt 5.04893 10.7621 13.9287
Pt 16.7868 8.9935 20.5639
Pt 9.46313 12.5959 21.9031
Pt 5.83558 21.5298 15.6522
Pd 24.916 14.6785 23.4574
Pt 13.0204 16.9225 21.8139
Pt 20.0193 20.6252 12.9357
Pt 10.8205 13.4561 18.487
Pd 23.7363 18.5329 5.95728
Pt 24.4253 15.0386 16.9193
Pt 5.67021 14.591 20.3661
Pt 18.0989 11.5254 10.465
Pt 20.5676 25.7869 17.6576
Pd 12.2414 25.4707 10.7274
Pd 25.7535 21.0016 12.4516
Pt 18.822 6.16722 22.3512
Pt 18.2745 8.68943 15.157
Pt 11.0653 13.282 3.73943
Pt 8.24769 18.9302 17.8601
Pt 20.5003 18.4859 22.4037
Pd 3.80453 18.6374 16.7634
Pt 18.0745 16.8918 9.26027
Pd 26.0526 7.32979 13.823
Pt 19.3509 7.156 13.2917
Pd 7.31779 5.56381 9.06528
Pt 10.6083 9.9771 21.594
Pt 10.6104 20.0896 24.4741
Pt 15.0088 5.78314 18.7986
Pd 9.72947 3.70798 10.1504
Pt 15.4057 17.3698 7.58993
Pt 19.8005 16.0955 16.7813
Pt 10.0353 7.99506 20.0251
Pt 14.0652 4.71102 13.3994
Pt 16.64 16.6455 26.2035
Pt 23.8798 20.7963 17.3303
Pt 14.687 6.56212 10.9969
Pd 8.73876 15.6554 2.5271
Pt 16.5412 2.85425 21.9231
Pt 8.07789 9.57678 20.2928
Pt 18.4259 16.2615 19.1774
Pt 11.3329 12.5116 25.5209
Pt 20.3105 8.24882 18.0447
Pt 12.0611 5.31286 9.3199
Pd 12.5993 23.5637 4.51835
Pt 16.2715 11.9184 8.24823
Pd 14.2784 3.22298 8.24404
Pt 25.6876 18.0427 11.0245
Pd 5.14777 14.6746 4.85095
Pd 22.2876 23.8707 22.3684
Pt 7.20658 9.38622 7.36678
Pt 16.8606 19.0581 26.3098
Pt 16.5635 21.8743 9.66596
Pd 26.1881 20.0685 15.9007
Pt 10.9022 6.89252 7.19204
Pt 17.5987 25.9702 16.956
Pt 10.6725 15.8528 4.49687
Pt 18.1541 10.6991 24.3073
Pt 15.7731 10.7617 25.3256
Pt 17.361 6.50785 19.8559
Pt 18.9583 6.31575 17.175
Pd 23.047 3.37717 16.3283
Pt 16.4616 23.4257 16.1865
Pt 19.0058 24.2248 15.9265
Pd 21.5258 16.486 26.9638
Pt 14.8076 7.89382 21.5914
Pt 23.1926 19.0234 19.1266
Pt 9.47165 11.9116 5.95405
Pt 6.80905 13.071 24.8958
Pt 14.3242 24.1512 6.72424
Pd 14.5335 17.7601 27.2174
Pt 17.3279 12.501 26.339
Pt 21.1048 15.4634 20.5037
Pd 10.9558 23.1508 23.1524
Pd 14.539 25.7253 9.36715
Pt 12.6475 11.8165 4.75577
Pt 16.0064 10.6469 13.5292
Pt 20.9295 23.1886 17.4106
Pd 14.4307 10.5016 22.3333
Pt 15.383 8.06952 17.4685
Pd 18.1773 25.9583 8.65687
Pt 6.84602 19.4516 8.36334
Pd 13.4316 27.4336 15.3738
Pt 18.7309 13.7066 19.5417
Pd 8.71343 13.1951 26.9184
Pt 22.9562 11.0506 15.2495
Pd 23.6041 12.0561 8.73119
Pt 6.27471 19.1114 14.1412
Pt 20.6298 14.9899 24.889
Pt 8.5621 8.78691 15.0276
Pt 3.92904 12.7571 17.4677
Pt 11.1056 14.4833 27.4219
Pt 7.18594 10.1321 17.7144
Pt 10.2212 18.2731 3.90921
Pd 20.1471 16.8153 2.93567
Pt 23.0215 19.8962 21.8443
Pt 18.3721 10.8038 19.6324
Pt 24.4698 15.2096 8.58873
Pt 25.5961 12.637 16.7024
Pd 20.1736 9.35788 26.2741
Pt 14.179 7.76077 6.65164
Pt 18.8696 23.7505 8.82072
Pt 25.6721 13.9735 18.6889
Pt 10.3848 16.1537 22.1756
Pt 8.74799 19.2368 13.0342
Pt 21.4589 10.2314 9.00998
Pt 13.525 17.5405 13.1364
Pt 13.8649 11.6997 9.56228
Pt 9.04654 20.9567 3.78627
Pt 15.3906 14.5432 1.07828
Pt 23.4926 7.62991 11.7251
Pd 18.552 27.4371 15.1215
Pd 8.06493 22.3275 23.658
Pt 22.1502 21.9153 14.2199
Pd 9.3155 11.2415 3.60683
Pd 14.0217 23.237 20.5822
Pt 21.6543 21.2199 18.9949
Pt 20.9096 9.99643 19.828
Pt 18.6932 17.6491 6.72998
Pd 14.1992 1.51131 12.7923
Pd 16.974 9.17106 3.59173
Pt 20.6171 11.1456 13.4954
Pd 18.1618 1.97422 19.4957
Pt 18.2477 17.8466 4.46888
Pt 22.6004 7.72674 19.2813
Pt 4.92027 11.9281 22.2913
Pt 14.1502 12.8349 24.2671
Pt 15.2926 17.2122 2.23197
Pd 11.3447 15.1515 2.10093
Pt 5.18555 23.4823 12.9536
Pt 23.3367 16.1438 24.9409
Pt 8.00036 18.4758 4.18298
Pt 18.3622 19.785 10.8553
Pd 18.852 2.86323 11.5698
Pt 7.44674 22.0016 8.20617
Pt 8.98724 21.0669 14.9435
Pt 18.6758 24.0272 18.4101
Pt 20.9399 7.78 11.7555
Pt 19.1484 16.7591 24.4372
Pd 25.1609 10.7798 21.4851
Pt 14.3887 8.58006 10.6562
Pt 19.2965 22.6808 22.5973
Pd 17.6469 19.1411 8.42478
Pt 19.2495 15.5188 21.8708
Pd 21.8838 6.94825 23.6774
Pt 16.4026 22.7526 5.89065
Pd 3.50233 13.0472 12.3136
Pd 18.3242 4.28386 24.0114
Pt 16.7625 12.192 22.9378
Pt 11.5639 19.4343 2.11838
Pt 21.2774 18.6604 4.60724
Pt 9.79621 23.1227 13.9774
Pt 11.8932 11.7832 20.4869
Pt 11.7013 11.7089 16.6774
Pd 22.8244 10.1657 25.1649
Pt 11.7112 23.7 20.6777
Pt 21.0105 5.27517 11.8473
Pt 18.8844 20.2685 22.242
Pt 14.8215 23.4831 10.4394
Pt 10.2095 7.12427 13.4921
Pd 5.15298 20.1902 5.37218
Pt 9.76797 10.6678 13.1826
Pt 11.8063 10.0474 18.6461
Pt 17.8913 14.6134 25.103
Pt 21.4242 16.9438 6.16417
Pt 15.3798 18.3514 4.67252
Pt 26.9981 15.7189 17.5497
Pt 16.5997 5.31464 11.8655
Pt 10.059 9.00657 8.50969
Pt 16.2801 11.2982 5.71159
Pt 16.8472 8.61236 6.42977
Pd 22.1496 13.908 26.859
Pd 25.8463 17.7865 21.2521
Pt 4.95673 17.8324 12.2511
Pt 12.7075 18.0844 7.21411
Pt 11.936 17.5734 23.8592
Pt 5.83437 18.4799 22.6586
Pt 7.29286 21.9462 13.2028
Pt 8.61487 11.3752 15.4232
Pt 12.653 14.6061 17.1225
Pt 13.3503 21.6167 11.9737
Pt 22.1091 12.7606 12.918
Pd 11.9436 8.59321 27.5241
Pd 21.9771 24.2686 15.255
Pt 10.322 14.8979 15.9033
Pt 10.7377 19.1131 21.7107
Pd 3.65612 18.0535 19.5283
Pt 20.5118 23.9493 20.4617
Pt 20.2648 14.8614 14.0451
Pt 5.76746 20.0924 17.5373
Pd 19.8137 1.41362 17.326
Pt 16.4711 24.4128 8.31208
Pt 8.84653 14.1717 23.9501
Pt 9.33382 4.45018 14.3666
Pt 21.822 16.6504 17.6356
Pt 14.3795 19.8145 9.7682
Pt 12.1501 9.44106 13.134
Pt 9.51867 17.3144 20.3467
Pt 15.1544 18.0196 21.9806
Pt 17.1635 15.0476 7.04312
Pt 20.4541 5.87512 9.31384
Pt 22.802 17.2789 10.9013
Pt 16.5152 5.61108 22.2164
Pt 19.6271 13.1718 23.0366
Pt 15.0211 8.24852 13.1794
Pt 17.6778 9.59876 26.3724
Pt 22.1876 7.67242 13.639
Pd 3.71098 11.3271 19.8888
Pt 14.4003 8.67996 24.6231
Pt 17.1054 14.7882 17.8794
Pt 11.2709 18.2259 13.9786
Pt 10.1746 7.77516 5.13449
Pt 15.0635 3.21717 14.8921
Pt 6.10985 11.7815 15.9992
Pt 17.1267 15.7398 22.9954
Pt 16.4695 20.8796 17.6777
Pt 23.8607 9.90448 10.2719
Pt 14.4388 21.9358 8.31045
Pt 11.59 24.9945 15.1319
Pt 13.5264 7.82761 19.4044
Pd 5.2624 23.6057 16.8429
Pd 19.0542 9.05826 5.40989
Pt 8.76398 11.5468 24.7279
Pt 7.99694 14.5165 8.25261
Pt 19.8429 22.0651 15.0382
Pt 12.9833 14.1457 9.45714
Pd 17.004 22.8476 23.3236
Pt 6.51463 17.2051 19.5061
Pt 13.2669 12.8402 26.7362
Pt 6.30364 17.6647 16.6659
Pt 14.0713 10.6941 14.9425
Pt 4.7736 8.68494 11.9218
Pt 13.2706 8.30449 15.221
Pt 13.7505 9.95132 17.174
Pt 10.5176 17.3485 1.46175
Pt 8.93937 20.9371 19.317
Pt 14.0911 11.9025 7.12428
Pt 9.59223 17.2798 11.4818
Pt 24.2002 12.8368 20.3194
Pt 19.9397 19.0335 17.5075
Pt 23.7503 20.5232 9.65555
Pt 22.8483 17.4135 20.899
Pd 17.9078 17.6478 1.56162
Pt 9.7262 10.3244 17.7074
Pt 16.2422 12.6693 20.7085
Pd 10.1207 25.6747 8.39864
Pd 10.1864 25.4011 19.1893
Pt 18.2197 11.4687 3.89611
Pd 27.1923 13.8685 12.5727
Pt 23.8945 8.74703 14.8334
Pd 16.0262 26.0509 11.7549
Pt 10.9227 12.6744 14.4659
Pt 12.0951 2.47018 13.8367
Pt 17.1183 13.7004 4.66704
Pd 4.37029 16.5848 21.4426
Pd 10.1356 3.94872 5.37692
Pd 6.78518 10.8392 22.8569
Pd 20.8286 2.63732 19.668
Pt 22.3416 14.4297 8.36806
Pt 8.38882 11.6017 8.32323
Pt 14.9498 14.6405 7.87464
Pt 11.0937 19.4108 19.0049
Pt 20.4529 19.2917 8.5691
Pt 8.7739 13.0873 12.1474
Pt 6.00629 15.5875 9.06404
Pt 3.23502 15.645 13.2564
Pt 7.84997 19.8544 24.4919
Pt 6.33793 9.6788 10.6549
Pt 12.9262 17.2987 2.94951
Pt 14.3942 12.9634 16.3993
Pt 19.3361 7.81963 20.19
