665
Atoms. Timestep: 20000
Pt 17.7154 3.18598 14.9538
Pt 11.5902 6.25636 16.4887
Pt 5.65072 9.75445 14.8401
Pt 6.29744 9.29128 12.1271
Pt 12.8264 8.41682 9.51005
Pd 18.025 5.2738 19.5945
Pd 3.76974 10.5805 21.1897
Pd 11.8675 5.91383 21.6582
Pt 12.0459 6.22618 9.45102
Pd 12.4764 11.3245 25.9218
Pt 16.9967 13.3102 24.8471
Pt 13.3854 22.8915 15.3773
Pt 12.0255 9.09644 13.9579
Pt 9.43336 21.8166 10.1377
Pt 14.9597 15.9035 19.0179
Pd 15.8352 1.47027 14.3794
Pd 2.6058 13.8279 16.3619
Pt 5.86383 12.0189 13.5661
Pd 6.51156 4.60791 16.6974
Pd 2.51645 7.21683 17.0853
Pd 3.93617 13.5726 14.1886
Pt 8.52974 11.4627 8.8637
Pd 4.15469 7.68278 20.0146
Pd 4.77574 18.4769 18.1215
Pd 8.75448 6.69188 21.8397
Pd 6.21981 17.7063 22.1238
Pd 13.85 16.784 27.049
Pt 7.30144 22.7137 12.5744
Pd 16.5483 17.9046 26.3602
Pt 14.0525 24.4175 11.6984
Pd 4.80546 20.4748 8.87346
Pd 7.5492 3.3035 12.4203
Pd 3.37417 16.6295 20.0178
Pt 12.4996 16.3982 13.5879
Pt 12.636 13.9995 25.3027
Pd 8.4834 14.8771 16.1289
Pd 14.6393 19.6424 26.3069
Pd 10.5174 23.5951 22.1032
Pt 15.4359 12.0412 12.5363
Pt 14.5831 15.9826 6.39715
Pd 7.78171 10.5492 6.49318
Pt 5.64902 12.1925 20.6481
Pt 15.6646 20.2245 7.86255
Pd 4.52866 11.2237 11.3445
Pd 5.24995 12.7321 22.9981
Pt 7.2524 14.1825 20.0483
Pt 15.1691 17.0927 21.1394
Pt 8.95757 16.5542 20.3495
Pt 14.5211 18.2029 24.1861
Pd 23.0369 20.9672 11.2642
Pd 9.34514 25.5968 10.5796
Pt 8.44827 8.72757 20.2682
Pd 9.64691 15.6037 13.8277
Pd 5.10445 21.5558 14.2357
Pt 13.3305 10.3311 18.9519
Pd 13.9591 27.252 16.1631
Pt 4.9271 14.6439 18.903
Pt 4.82579 11.8485 16.0224
Pt 15.3122 9.245 17.6684
Pd 9.98863 26.8307 17.6073
Pt 14.1826 25.2699 14.2826
Pt 11.0221 11.1373 13.4494
Pt 9.02777 9.05199 17.6264
Pd 6.82787 13.5431 9.24873
Pd 7.36315 13.4244 6.55556
Pd 19.9411 16.9257 3.13768
Pd 12.1522 5.51438 6.32619
Pd 26.5356 14.4433 19.9355
Pd 14.3922 5.11799 20.8823
Pt 14.3746 7.16042 16.8496
Pt 14.435 4.34651 10.4181
Pt 5.28219 17.9765 9.30298
Pd 23.258 21.0021 19.5747
Pd 2.12291 14.4899 18.8237
Pt 7.68224 12.7329 14.9646
Pt 10.7013 13.8148 6.25869
Pt 8.30697 15.2024 8.12926
Pt 9.24391 15.7168 10.4891
Pt 6.8054 15.8846 11.1303
Pt 20.2057 13.4634 6.21021
Pt 22.073 8.34536 10.3362
Pd 10.2772 9.05506 11.7891
Pd 5.4583 4.50584 13.6923
Pd 18.4211 7.2354 23.3702
Pd 11.1898 17.2167 11.765
Pt 12.8854 18.7114 10.1596
Pt 13.8282 14.415 12.3333
Pt 13.0994 14.9752 8.03063
Pt 11.9008 19.4391 24.3653
Pt 9.25498 10.6801 15.5599
Pd 13.5558 3.42015 19.0626
Pt 12.2105 4.51606 13.977
Pt 11.3996 10.6235 17.1645
Pt 10.0935 13.7228 8.98251
Pt 12.9327 13.5036 5.87622
Pd 10.4528 2.31507 14.6115
Pd 9.17788 23.9666 7.77439
Pt 21.685 6.93886 14.4469
Pd 8.03146 17.3866 5.61883
Pt 15.2863 16.9285 12.7545
Pt 9.53418 18.884 7.56726
Pt 6.46845 12.862 18.0019
Pt 9.93013 5.05165 14.5166
Pd 7.70366 23.6734 10.243
Pt 8.42681 10.7137 13.5208
Pt 10.9582 22.4185 16.291
Pd 10.4099 13.0897 15.4478
Pt 9.45807 6.79995 19.1192
Pt 15.8717 11.6798 19.065
Pt 16.6418 9.11042 22.8921
Pd 13.959 13.4837 19.644
Pt 9.17084 4.5435 16.7065
Pd 20.782 21.5163 23.7911
Pd 3.71548 5.88035 15.581
Pt 10.7738 15.9652 23.9741
Pt 8.47185 7.61848 12.0716
Pd 7.44933 6.16581 9.11903
Pt 15.9918 22.0356 5.96801
Pd 7.43386 8.6999 8.18417
Pd 17.7005 16.2739 1.86714
Pt 13.9628 23.2568 9.34387
Pt 5.82364 14.3993 16.0962
Pt 10.0466 17.8284 4.57853
Pd 6.10222 15.7169 6.87713
Pt 11.8847 19.552 4.98739
Pt 9.46422 18.4971 24.1078
Pd 4.78595 18.9646 15.1605
Pd 15.3285 14.0253 17.3261
Pt 8.52288 17.5282 12.5105
Pt 10.6213 14.1429 21.7927
Pd 8.21944 21.8807 23.5128
Pd 17.9303 9.31845 16.1422
Pt 9.20543 13.9703 24.5522
Pd 13.907 10.9839 9.861
Pd 21.9088 15.7955 26.9219
Pd 10.9146 18.3289 26.8393
Pd 23.4053 24.1271 16.4639
Pd 6.73729 10.5673 23.2166
Pt 8.90376 12.4239 17.5241
Pt 18.2293 20.8965 7.60129
Pt 16.6699 22.7057 10.6374
Pd 2.76229 10.4817 16.8602
Pt 7.82713 17.4818 8.69103
Pt 13.8115 22.5535 6.68985
Pd 25.3048 20.341 12.6845
Pt 9.91377 20.1217 15.8746
Pt 16.2638 22.4947 15.4238
Pd 17.1287 27.7773 10.3778
Pd 4.12248 16.0612 14.6699
Pd 6.23807 23.9157 14.6689
Pd 13.6207 19.8225 2.97968
Pd 6.72007 15.0717 24.4144
Pd 13.1338 9.18316 16.1948
Pd 24.1814 18.5543 22.9792
Pt 8.66445 20.3817 12.4361
Pd 24.8087 7.89538 17.2842
Pt 15.6009 24.2904 19.4112
Pt 8.5992 17.5785 15.2726
Pt 19.953 13.843 20.829
Pd 7.33586 22.0606 7.04556
Pd 11.6647 24.4866 5.73517
Pd 13.7477 22.2192 4.11448
Pt 7.93859 11.1113 19.5465
Pd 21.8548 18.2174 15.0043
Pd 3.54736 16.2979 17.237
Pd 6.4363 5.80637 11.6026
Pd 17.2896 12.3525 27.2246
Pd 3.78012 18.7249 13.1019
Pt 5.94354 20.8847 17.1406
Pd 19.3215 17.2303 27.3631
Pt 12.8638 15.908 22.8356
Pt 6.25377 18.7984 11.4832
Pt 6.06031 17.0563 16.3836
Pd 6.54232 19.3254 6.67762
Pd 5.563 23.0658 17.8728
Pt 16.3775 19.7738 24.2099
Pt 8.37339 18.9943 22.0161
Pd 13.1797 27.7099 13.7672
Pt 7.88171 13.3656 22.2599
Pt 15.7099 9.47969 20.4691
Pt 6.60647 21.4832 10.5836
Pt 9.64135 7.34756 9.66654
Pt 18.2528 14.7488 4.01721
Pt 10.3545 8.494 15.6057
Pd 3.21453 8.50223 15.0346
Pd 9.79362 11.987 11.4842
Pd 13.3353 1.83216 15.6459
Pd 10.099 3.04997 12.2607
Pt 14.0926 17.5532 17.311
Pt 19.568 6.99865 16.5302
Pt 14.4151 4.17959 12.9951
Pt 17.5812 7.744 21.0063
Pd 8.81615 12.035 4.63807
Pt 15.7248 9.67929 11.2816
Pd 10.3263 4.65519 19.4654
Pd 5.68115 7.71978 10.1867
Pd 8.32966 19.6625 4.84873
Pd 9.86019 9.19188 5.20353
Pd 8.8975 14.9766 4.98758
Pd 11.1125 12.9908 3.62625
Pd 11.3381 3.34173 17.369
Pd 17.8018 15.8954 13.8912
Pd 20.2236 14.0306 13.3764
Pd 9.53546 18.6205 10.3305
Pt 13.4492 4.36293 16.352
Pd 14.515 24.9262 7.33503
Pd 11.6346 12.9451 18.3298
Pd 11.0012 13.5793 13.006
Pd 18.3734 3.55382 7.58262
Pd 12.1078 17.8229 19.2152
Pt 13.3262 13.5375 22.066
Pt 15.5366 19.9154 21.7345
Pt 7.76336 8.48855 14.4104
Pt 10.7268 18.7599 13.7061
Pt 16.5468 7.12942 15.2306
Pt 14.8916 11.858 4.05362
Pt 9.87969 21.1449 7.68016
Pt 16.4746 17.6086 7.02625
Pd 16.8093 19.5998 16.8925
Pt 8.34181 9.70169 10.5844
Pt 5.93257 7.20258 16.0246
Pt 9.96703 26.5506 13.1966
Pt 5.36732 10.3207 19.2672
Pt 13.5256 18.9194 12.2615
Pt 7.69098 20.0389 8.91993
Pd 16.0308 19.7889 12.1176
Pt 10.2606 10.4141 19.5238
Pd 16.2622 21.2765 3.55963
Pt 4.6049 8.55192 17.4474
Pt 15.4274 7.11304 13.0099
Pt 17.9117 13.4851 9.0182
Pd 16.104 18.0133 18.8694
Pd 9.43051 11.1786 24.577
Pt 14.9596 9.95659 14.4793
Pd 6.16878 21.2081 19.6356
Pd 7.96526 23.754 19.5825
Pd 4.90586 18.9631 20.5238
Pt 22.8031 20.4656 14.3
Pt 6.77984 10.3386 17.0877
Pt 11.0846 20.5249 11.7807
Pt 12.1617 12.6496 8.67053
Pt 11.6559 17.2542 8.51262
Pt 17.0934 19.8379 5.35807
Pd 14.5971 27.2066 11.249
Pd 18.5183 10.0144 18.5087
Pt 15.0333 5.03422 18.1097
Pt 7.64302 19.2784 17.1013
Pd 6.76618 14.9513 13.8285
Pd 19.5878 27.0793 15.3654
Pt 16.7659 23.226 8.10615
Pt 8.06953 16.3573 22.858
Pd 19.0859 12.0326 25.6017
Pt 15.3399 14.7922 22.7799
Pd 6.69718 8.16477 18.8738
Pd 7.69336 5.37276 18.698
Pd 26.1214 12.36 17.4222
Pt 22.3131 12.8112 21.5891
Pd 22.8898 20.4362 24.5215
Pd 18.86 9.41806 3.82719
Pt 21.564 19.7375 12.3491
Pd 14.422 4.26434 6.19428
Pt 20.641 14.5372 3.7708
Pd 16.8405 14.089 19.6393
Pd 25.5085 6.67886 11.9635
Pd 7.51064 25.8352 12.4735
Pt 11.9386 25.2313 17.0294
Pd 19.1165 13.1834 1.91381
Pt 19.0067 22.2893 9.95944
Pt 11.6779 21.7604 5.96365
Pt 12.7494 15.273 17.9182
Pt 13.4457 14.5441 15.6002
Pt 18.091 17.2471 5.24211
Pt 13.0849 20.8335 21.5852
Pd 21.3847 13.4229 25.5942
Pd 17.8547 13.2244 12.7313
Pd 25.1629 10.4074 16.0162
Pt 8.70328 21.2604 20.8006
Pt 21.024 22.7495 18.2696
Pd 22.4335 18.4979 19.685
Pd 15.8573 18.073 10.2233
Pd 4.95301 15.4759 9.40974
Pt 12.4068 17.727 6.35516
Pd 18.483 22.2041 5.53486
Pt 11.6607 25.2514 13.9541
Pt 12.9825 21.9538 12.1426
Pd 19.732 19.5572 5.09041
Pd 17.6057 25.524 19.9374
Pd 3.31151 10.9283 13.8811
Pd 19.4693 26.0905 10.9324
Pt 8.33353 14.0191 12.2554
Pt 11.5015 18.131 16.2118
Pd 23.6912 6.23851 18.9067
Pd 5.90237 16.6693 20.0356
Pt 9.68873 24.8438 15.8896
Pt 7.77787 23.4212 16.9332
Pd 19.309 26.0011 17.5949
Pt 19.587 13.6335 23.7872
Pd 13.0408 23.2313 22.6092
Pd 4.14151 20.7775 11.6322
Pd 19.6417 23.347 7.51699
Pd 14.9764 21.9439 25.7617
Pd 17.8787 24.0432 22.2707
Pd 10.2319 10.5474 2.94775
Pd 17.4387 10.9784 2.21868
Pd 1.67117 11.709 18.8549
Pd 2.52933 9.18944 18.9243
Pt 15.1566 13.0905 9.25761
Pd 14.7949 2.66162 8.27834
Pt 22.6323 10.9206 19.3278
Pd 23.8 13.9804 25.071
Pd 8.8061 8.85356 22.8645
Pt 11.2395 10.2245 22.9468
Pt 16.3406 10.6606 24.8355
Pt 17.8636 12.1467 6.9066
Pd 21.4415 2.69356 11.7239
Pd 16.9422 3.17223 18.7807
Pt 16.5484 4.29337 11.0542
Pd 16.1995 15.7597 4.13314
Pd 5.89332 9.00523 21.3516
Pd 13.4947 6.9541 5.01182
Pt 11.9707 11.1127 5.19578
Pt 15.5267 4.76924 15.3791
Pt 18.1069 6.53351 11.7006
Pd 8.73134 16.4961 25.5308
Pd 12.6667 17.0375 3.37089
Pt 11.6707 8.13145 18.0923
Pd 20.5715 9.01336 16.0627
Pt 15.1851 15.8584 24.6458
Pd 13.7328 11.7908 16.5625
Pd 5.55075 15.0494 22.3074
Pt 19.349 4.40574 12.5492
Pd 24.5759 13.4515 22.4575
Pt 21.0298 18.9433 23.8254
Pt 10.95 7.86408 20.6983
Pd 10.3001 15.3907 18.4078
Pd 15.3571 8.98023 3.14467
Pd 13.3605 14.1866 3.39934
Pt 7.62867 6.0566 14.0903
Pt 20.5916 6.38288 11.0172
Pd 24.1614 12.3113 7.17385
Pd 19.1804 18.3536 15.8193
Pd 20.2075 13.1477 10.8573
Pt 19.3396 8.5979 11.3723
Pd 22.143 14.9464 14.6775
Pd 17.0336 20.0808 26.8771
Pd 23.8946 13.0288 9.93973
Pd 17.2984 8.76546 13.5589
Pt 17.2255 24.916 14.7455
Pd 18.1077 13.561 15.9281
Pt 17.9288 15.8428 24.833
Pd 11.7022 15.6528 20.5349
Pt 12.6582 10.4723 7.66241
Pt 13.2194 8.47055 20.5023
Pd 13.2223 6.72211 14.2792
Pd 23.1544 16.719 24.6523
Pt 17.7875 14.4428 22.2836
Pt 24.9039 15.0915 18.0873
Pt 21.5813 16.4553 12.4553
Pd 17.1221 2.08966 9.84427
Pd 27.4452 14.8743 17.4303
Pt 17.8975 15.2122 6.76189
Pt 14.3411 18.1713 8.04231
Pt 11.4797 15.7408 5.03076
Pt 14.9158 8.916 7.99068
Pd 11.1806 25.7804 8.11233
Pt 10.0439 11.421 6.81556
Pd 9.24342 22.2016 5.12764
Pd 5.43483 11.3522 8.35194
Pt 15.8214 15.6483 8.89906
Pd 15.1163 26.8434 20.4954
Pd 15.8394 25.4603 9.64149
Pt 9.26534 18.027 18.0597
Pd 19.7873 15.9441 15.6471
Pd 15.645 14.1035 14.1607
Pd 11.5304 22.5386 24.5567
Pd 15.0352 11.4288 26.3793
Pt 11.8289 11.5522 20.8348
Pd 7.20378 19.0738 24.8475
Pd 9.89005 4.44635 9.31814
Pd 12.7416 11.4742 2.81596
Pt 23.6358 7.93636 12.328
Pt 17.5016 6.92186 8.04146
Pt 14.9208 17.7938 4.87208
Pd 20.7561 12.0484 3.93049
Pt 20.2382 21.0932 14.2696
Pd 12.4362 19.8528 7.66088
Pt 11.6235 23.3736 8.24696
Pt 20.6734 22.7878 12.1602
Pt 14.1794 20.2119 5.57295
Pd 11.0654 15.8529 15.8765
Pd 19.8346 19.0488 21.0103
Pt 7.36448 18.7515 19.8544
Pt 8.60976 6.88831 16.6099
Pt 10.7346 20.9724 22.2326
Pd 15.1612 24.4773 22.2229
Pd 21.8776 25.5534 12.2948
Pd 13.0052 24.7934 19.6659
Pd 24.486 10.9215 21.7218
Pd 19.4068 22.1654 21.4259
Pd 23.4872 5.92892 10.5173
Pd 17.2243 15.4727 27.4759
Pd 26.0433 11.7421 11.129
Pd 10.277 20.5024 3.37837
Pd 21.522 23.1048 9.902
Pd 5.0388 5.94521 18.1757
Pt 11.5448 24.1353 10.8135
Pt 16.7128 18.5485 14.4862
Pt 9.59863 24.0201 12.5641
Pd 4.35436 16.3023 11.8805
Pd 13.8479 19.8427 19.241
Pt 14.6197 22.4906 20.5228
Pt 10.7928 17.6157 22.2358
Pt 8.68995 22.3326 14.6711
Pd 9.69881 20.8634 26.0093
Pt 9.12712 11.5462 21.8089
Pd 13.4545 25.9163 9.48401
Pd 24.2321 15.9752 22.0541
Pd 3.55463 13.79 20.9514
Pd 21.7641 7.30951 21.0715
Pt 19.2366 16.6008 22.7016
Pd 24.8155 17.5563 20.139
Pt 7.61563 16.0014 18.22
Pd 26.6938 17.0576 18.2914
Pd 24.2692 6.46339 14.8306
Pt 15.9746 13.4483 5.69261
Pt 20.7256 13.4041 16.313
Pt 15.6516 12.636 21.719
Pt 18.2289 12.5059 4.32803
Pt 13.0827 18.2843 21.9134
Pd 12.6744 1.43714 13.0533
Pt 14.3248 5.78848 8.20108
Pd 21.93 22.8493 21.618
Pt 15.3497 6.99855 19.7748
Pd 12.8092 6.11415 18.893
Pt 20.6566 11.1516 17.4308
Pd 16.5624 18.3184 3.20793
Pd 19.695 5.77958 21.8101
Pd 12.3348 3.94552 8.24813
Pd 19.9412 11.3924 15.0242
Pd 23.4947 8.48933 6.86725
Pd 12.7071 12.2892 11.4799
Pt 15.6325 6.80262 10.2117
Pd 13.6672 8.98407 24.1095
Pd 14.764 16.2517 2.1037
Pt 19.6058 7.9258 8.82102
Pt 14.9252 21.0273 10.4426
Pd 18.5981 10.9099 9.19296
Pd 18.801 10.6067 12.3415
Pt 17.5088 5.21664 16.9462
Pt 14.0623 11.6696 23.7798
Pt 20.569 11.4001 23.3312
Pt 18.7545 12.7456 18.2851
Pt 23.3827 8.60502 19.7641
Pt 24.3576 16.3135 14.4388
Pd 10.9639 6.8059 12.903
Pd 14.9138 13.9072 26.459
Pt 14.1211 9.68154 5.58062
Pt 23.0651 10.719 11.275
Pd 19.8864 20.3803 25.7823
Pt 21.0157 9.67498 7.69267
Pt 6.86777 11.9599 11.2443
Pt 19.2235 3.06932 10.5281
Pt 21.1864 8.77339 18.6569
Pt 15.1503 20.358 14.3596
Pd 17.2271 7.816 4.60886
Pd 4.88486 7.11607 13.4694
Pd 16.4471 11.6585 16.4673
Pd 17.6362 16.2426 20.2432
Pd 17.4138 8.73431 9.89109
Pt 21.5421 13.2986 19.1989
Pt 13.3311 9.82553 11.9537
Pt 23.8114 17.1188 16.9917
Pd 21.3238 9.2761 13.2062
Pt 16.4518 4.71647 8.65468
Pd 22.1323 20.1553 21.8249
Pt 12.4566 17.1356 25.0417
Pd 20.6009 4.92696 7.45179
Pt 20.432 11.3343 20.4308
Pd 19.3711 7.09562 6.05058
Pt 24.32 13.1661 19.8692
Pd 8.83874 5.18338 11.4591
Pt 16.7852 10.6588 4.8544
Pt 20.721 21.0076 19.8752
Pd 24.95 18.9788 10.192
Pd 11.8863 14.7711 10.756
Pd 12.1514 21.5601 9.74782
Pt 17.3096 16.3559 17.4726
Pd 20.8549 9.90293 25.2747
Pd 26.6172 15.0484 13.175
Pt 10.4216 19.4618 20.193
Pt 22.1153 23.4982 14.1976
Pt 24.1547 15.0664 12.475
Pd 19.1451 15.4757 11.0575
Pd 17.2971 11.4882 14.3188
Pt 20.4903 12.2552 8.23804
Pt 22.6547 19.3988 17.1506
Pt 18.2783 20.3104 22.6362
Pt 19.3963 6.93888 13.8197
Pt 12.0043 7.9328 6.91087
Pd 25.9014 14.5901 10.753
Pd 16.294 13.805 2.3374
Pd 12.4548 2.28086 10.3201
Pt 20.4537 24.1951 16.2237
Pt 14.6856 11.7 7.03782
Pd 17.5571 17.6804 12.0262
Pd 26.7618 16.3796 15.7551
Pd 17.8326 20.8576 14.3139
Pt 20.1815 18.9409 7.95575
Pd 23.7362 17.8734 8.18135
Pd 21.1167 11.7104 12.5357
Pt 15.4075 16.121 15.3747
Pt 22.1178 14.46 23.3123
Pt 12.6963 20.3751 14.2622
Pd 13.4716 20.37 16.6563
Pd 8.12663 26.3943 14.9145
Pt 18.7611 18.5935 24.9684
Pd 26.1905 12.5808 13.8855
Pd 18.7776 19.9287 12.1365
Pt 20.9935 17.1799 17.8283
Pt 20.8698 10.6402 10.2301
Pd 18.8022 18.308 18.6738
Pt 11.5956 27.166 15.718
Pd 19.5726 10.6026 5.65531
Pt 21.003 16.2723 6.40639
Pt 13.8982 16.5436 10.3243
Pt 16.3345 24.9624 12.3238
Pt 21.5344 16.8233 8.82225
Pd 26.0994 17.654 12.2659
Pd 15.9354 22.0702 23.2652
Pd 7.72301 25.7095 17.1867
Pt 11.9576 26.2464 11.8223
Pd 5.51127 13.947 12.0524
Pt 14.9384 24.6087 16.395
Pd 20.9354 21.09 6.68337
Pd 19.8126 17.8338 10.8073
Pt 20.7397 20.4384 9.89023
Pd 21.995 26.0762 14.9196
Pd 3.96037 12.3352 18.5037
Pd 17.9534 12.0246 20.645
Pt 11.4677 20.0512 18.017
Pd 18.5112 9.0154 25.3045
Pd 14.9601 2.52671 17.3184
Pt 10.1508 23.9886 18.3906
Pt 17.3184 24.169 17.6045
Pd 19.2678 14.4309 27.0409
Pt 19.2142 5.32269 9.36919
Pt 13.2746 11.9589 14.0386
Pt 19.5116 7.74127 19.8093
Pd 7.94706 2.93327 14.8781
Pt 17.5997 7.45759 18.0537
Pd 14.7788 1.86119 11.4337
Pt 19.1912 9.42022 21.8474
Pt 19.488 15.0713 18.3058
Pt 13.6315 21.0423 24.0206
Pd 23.2326 11.4946 24.0382
Pt 22.7825 10.9319 8.57019
Pt 22.1988 4.96463 12.6859
Pt 23.4179 12.7983 12.9608
Pt 22.2512 9.95554 22.0043
Pd 17.7666 2.18155 12.2728
Pt 11.097 10.4708 9.84519
Pd 6.54499 6.38123 20.556
Pd 16.6654 5.53065 22.0623
Pt 10.0064 16.4828 7.07457
Pt 21.9222 14.6458 10.8131
Pd 22.9547 4.53123 15.5076
Pd 10.4521 12.8356 26.5585
Pt 15.5654 6.9455 6.38619
Pt 20.1908 14.9615 8.65683
Pd 19.489 3.8759 17.7118
Pt 20.6373 16.2224 24.7365
Pt 6.29454 17.5707 13.8526
Pt 13.1784 7.08438 11.6036
Pd 24.2071 21.7484 17.3805
Pt 24.8189 14.0189 15.7775
Pd 20.68 8.29455 23.3995
Pd 14.5149 7.28693 22.5472
Pd 22.8769 13.761 4.92219
Pt 18.4656 17.0304 8.45122
Pd 24.963 19.2745 18.061
Pd 25.0393 10.1789 8.54327
Pt 23.5455 18.059 12.8523
Pt 17.9172 11.4554 23.1988
Pd 9.26095 6.58801 7.00798
Pd 20.6878 3.06602 15.1792
Pd 15.9327 7.53358 24.9782
Pt 11.2799 12.8458 23.6515
Pt 16.9914 5.02313 13.5084
Pd 23.4489 23.4796 11.7847
Pt 16.3369 15.0345 11.2229
Pt 22.8255 11.5198 14.973
Pd 21.9261 6.88765 8.08098
Pt 24.0496 16.661 10.4893
Pd 25.0398 10.5073 19.1886
Pd 18.033 26.9011 12.8716
Pd 6.2322 20.5483 22.5769
Pt 20.0569 20.4593 17.2761
Pt 22.037 21.7836 16.0936
Pt 24.3929 10.5162 13.335
Pt 23.4189 12.3332 17.4986
Pt 15.827 22.1573 18.085
Pd 15.1772 22.4991 13.1604
Pd 22.2405 11.0733 5.60581
Pt 10.0062 9.08233 8.04859
Pt 19.1547 4.84652 15.1483
Pt 22.2586 6.74174 16.7628
Pt 21.7676 16.9222 22.2965
Pt 21.8367 18.5274 6.29995
Pt 18.7016 22.7763 15.8834
Pt 13.854 10.3929 21.894
Pd 21.5597 8.46386 5.16155
Pd 24.6466 7.61572 9.58741
Pt 23.385 8.81847 14.9382
Pd 11.9302 4.71151 11.4456
Pd 18.1385 21.7782 24.6567
Pd 25.6414 8.34259 13.9201
Pt 17.8924 9.6611 7.40605
Pt 22.9722 9.54136 17.1615
Pt 18.1352 22.8176 12.7044
Pd 17.2588 5.15366 6.02011
Pd 21.5533 4.27882 9.773
Pt 22.3117 14.2888 7.76583
Pd 24.3999 15.5586 8.32799
Pt 22.3757 14.8626 17.1339
Pt 16.9956 11.8822 10.7046
Pt 8.96735 21.4888 18.0698
Pd 22.5535 17.2776 4.01328
Pd 17.7239 19.6939 9.86343
Pd 12.5657 27.0424 18.6362
Pt 18.3901 21.8461 18.6315
Pt 16.9697 22.3656 20.6028
Pt 20.162 16.5281 20.5123
Pd 23.2117 23.5473 19.3275
Pd 24.5523 4.09751 13.2977
Pt 17.1105 17.854 22.4341
Pt 15.5102 26.4183 18.0741
Pd 23.5929 15.7642 5.81607
Pd 21.9681 25.6009 18.1423
Pd 20.7891 5.74606 19.2069
Pd 21.5821 18.5362 26.2002
Pd 11.0459 15.4861 26.5412
Pd 18.25 24.6848 9.31062
Pd 12.1258 20.8022 26.478
Pd 12.8238 9.15888 3.58427
Pd 16.9325 26.7511 16.2366
Pd 22.7077 20.1385 8.37723
Pt 14.0405 18.0851 14.7483
Pd 11.0327 8.9002 25.049
Pd 24.5389 18.8738 15.2657
Pt 11.3041 22.0846 19.9581
Pd 10.6368 25.5629 20.2662
Pd 16.0464 27.6565 14.1289
Pt 19.8152 17.9167 13.462
Pt 11.0791 22.5675 13.6997
Pt 19.6036 24.0612 19.5993
Pd 4.97572 23.1185 11.5708
Pd 24.4866 22.2429 14.1031
Pt 7.39477 20.2311 14.7967
Pt 17.3358 19.8401 20.2582
Pd 25.1445 9.29954 11.1
Pt 22.5833 15.7806 19.8179
Pt 9.66498 13.0006 19.7668
Pt 19.7682 24.7112 13.5331
Pt 22.2987 18.2485 10.6533
Pt 13.0968 22.8642 18.096
