181

Co      15.299758066083438     13.761497524744319      5.000000000000000
Co      15.299758066083438     13.761497524744319      7.501036685056818
Co      15.299758066083438     13.761497524744319     10.002073370113637
Co      15.299758066083438     13.761497524744319     12.503110055170456
Co      15.299758066083438     13.761497524744319     15.004146740227274
Co      15.299758066083438     13.761497524744319     17.505183425284091
Co      17.359709679300124     14.430816377165170      6.250518342528410
Co      17.359709679300124     14.430816377165170      8.751555027585226
Co      17.359709679300124     14.430816377165170     11.252591712642046
Co      17.359709679300124     14.430816377165170     13.753628397698867
Co      17.359709679300124     14.430816377165170     16.254665082755682
Co      15.299758066083438     15.927458829800347      6.250518342528410
Co      15.299758066083438     15.927458829800347      8.751555027585226
Co      15.299758066083438     15.927458829800347     11.252591712642046
Co      15.299758066083438     15.927458829800347     13.753628397698867
Co      15.299758066083438     15.927458829800347     16.254665082755682
Co      13.239806452866752     14.430816377165170      6.250518342528410
Co      13.239806452866752     14.430816377165170      8.751555027585226
Co      13.239806452866752     14.430816377165170     11.252591712642046
Co      13.239806452866752     14.430816377165170     13.753628397698867
Co      13.239806452866752     14.430816377165170     16.254665082755682
Co      14.026637953935349     12.009198019795457      6.250518342528410
Co      14.026637953935349     12.009198019795457      8.751555027585226
Co      14.026637953935349     12.009198019795457     11.252591712642046
Co      14.026637953935349     12.009198019795457     13.753628397698867
Co      14.026637953935349     12.009198019795457     16.254665082755682
Co      16.572878178231527     12.009198019795457      6.250518342528410
Co      16.572878178231527     12.009198019795457      8.751555027585226
Co      16.572878178231527     12.009198019795457     11.252591712642046
Co      16.572878178231527     12.009198019795457     13.753628397698867
Co      16.572878178231527     12.009198019795457     16.254665082755682
Co      19.419661292516814     15.100135229586021      7.501036685056818
Co      19.419661292516814     15.100135229586021     10.002073370113637
Co      19.419661292516814     15.100135229586021     12.503110055170453
Co      19.419661292516814     15.100135229586021     15.004146740227274
Co      17.359709679300124     16.596777682221198      7.501036685056818
Co      17.359709679300124     16.596777682221198     10.002073370113637
Co      17.359709679300124     16.596777682221198     12.503110055170453
Co      17.359709679300124     16.596777682221198     15.004146740227274
Co      15.299758066083438     18.093420134856373      7.501036685056818
Co      15.299758066083438     18.093420134856373     10.002073370113637
Co      15.299758066083438     18.093420134856373     12.503110055170453
Co      15.299758066083438     18.093420134856373     15.004146740227274
Co      13.239806452866752     16.596777682221198      7.501036685056818
Co      13.239806452866752     16.596777682221198     10.002073370113637
Co      13.239806452866752     16.596777682221198     12.503110055170453
Co      13.239806452866752     16.596777682221198     15.004146740227274
Co      11.179854839650062     15.100135229586025      7.501036685056818
Co      11.179854839650062     15.100135229586025     10.002073370113637
Co      11.179854839650062     15.100135229586025     12.503110055170453
Co      11.179854839650062     15.100135229586025     15.004146740227274
Co      11.966686340718661     12.678516872216310      7.501036685056818
Co      11.966686340718661     12.678516872216310     10.002073370113637
Co      11.966686340718661     12.678516872216310     12.503110055170453
Co      11.966686340718661     12.678516872216310     15.004146740227274
Co      12.753517841787259     10.256898514846593      7.501036685056818
Co      12.753517841787259     10.256898514846593     10.002073370113637
Co      12.753517841787259     10.256898514846593     12.503110055170453
Co      12.753517841787259     10.256898514846593     15.004146740227274
Co      15.299758066083438     10.256898514846593      7.501036685056818
Co      15.299758066083438     10.256898514846593     10.002073370113637
Co      15.299758066083438     10.256898514846593     12.503110055170453
Co      15.299758066083438     10.256898514846593     15.004146740227274
Co      17.845998290379619     10.256898514846593      7.501036685056818
Co      17.845998290379619     10.256898514846593     10.002073370113637
Co      17.845998290379619     10.256898514846593     12.503110055170453
Co      17.845998290379619     10.256898514846593     15.004146740227274
Co      18.632829791448220     12.678516872216308      7.501036685056818
Co      18.632829791448220     12.678516872216308     10.002073370113637
Co      18.632829791448220     12.678516872216308     12.503110055170453
Co      18.632829791448220     12.678516872216308     15.004146740227274
Co      21.479612905733504     15.769454082006870      8.751555027585226
Co      21.479612905733504     15.769454082006870     11.252591712642046
Co      21.479612905733504     15.769454082006870     13.753628397698867
Co      19.419661292516814     17.266096534642049      8.751555027585226
Co      19.419661292516814     17.266096534642049     11.252591712642046
Co      19.419661292516814     17.266096534642049     13.753628397698867
Co      17.359709679300124     18.762738987277224      8.751555027585226
Co      17.359709679300124     18.762738987277224     11.252591712642046
Co      17.359709679300124     18.762738987277224     13.753628397698867
Co      15.299758066083438     20.259381439912392      8.751555027585226
Co      15.299758066083438     20.259381439912392     11.252591712642046
Co      15.299758066083438     20.259381439912392     13.753628397698867
Co      13.239806452866754     18.762738987277224      8.751555027585226
Co      13.239806452866754     18.762738987277224     11.252591712642046
Co      13.239806452866754     18.762738987277224     13.753628397698867
Co      11.179854839650062     17.266096534642049      8.751555027585226
Co      11.179854839650062     17.266096534642049     11.252591712642046
Co      11.179854839650062     17.266096534642049     13.753628397698867
Co       9.119903226433376     15.769454082006874      8.751555027585226
Co       9.119903226433376     15.769454082006874     11.252591712642046
Co       9.119903226433376     15.769454082006874     13.753628397698867
Co       9.906734727501973     13.347835724637159      8.751555027585226
Co       9.906734727501973     13.347835724637159     11.252591712642046
Co       9.906734727501973     13.347835724637159     13.753628397698867
Co      10.693566228570571     10.926217367267443      8.751555027585226
Co      10.693566228570571     10.926217367267443     11.252591712642046
Co      10.693566228570571     10.926217367267443     13.753628397698867
Co      11.480397729639167      8.504599009897730      8.751555027585226
Co      11.480397729639167      8.504599009897730     11.252591712642046
Co      11.480397729639167      8.504599009897730     13.753628397698867
Co      14.026637953935349      8.504599009897730      8.751555027585226
Co      14.026637953935349      8.504599009897730     11.252591712642046
Co      14.026637953935349      8.504599009897730     13.753628397698867
Co      16.572878178231527      8.504599009897728      8.751555027585226
Co      16.572878178231527      8.504599009897728     11.252591712642046
Co      16.572878178231527      8.504599009897728     13.753628397698867
Co      19.119118402527707      8.504599009897728      8.751555027585226
Co      19.119118402527707      8.504599009897728     11.252591712642046
Co      19.119118402527707      8.504599009897728     13.753628397698867
Co      19.905949903596305     10.926217367267443      8.751555027585226
Co      19.905949903596305     10.926217367267443     11.252591712642046
Co      19.905949903596305     10.926217367267443     13.753628397698867
Co      20.692781404664906     13.347835724637157      8.751555027585226
Co      20.692781404664906     13.347835724637157     11.252591712642046
Co      20.692781404664906     13.347835724637157     13.753628397698867
Co      23.539564518950193     16.438772934427725     10.002073370113637
Co      23.539564518950193     16.438772934427725     12.503110055170453
Co      21.479612905733504     17.935415387062896     10.002073370113637
Co      21.479612905733504     17.935415387062896     12.503110055170453
Co      19.419661292516814     19.432057839698075     10.002073370113637
Co      19.419661292516814     19.432057839698075     12.503110055170453
Co      17.359709679300124     20.928700292333247     10.002073370113637
Co      17.359709679300124     20.928700292333247     12.503110055170453
Co      15.299758066083438     22.425342744968418     10.002073370113637
Co      15.299758066083438     22.425342744968418     12.503110055170453
Co      13.239806452866754     20.928700292333247     10.002073370113637
Co      13.239806452866754     20.928700292333247     12.503110055170453
Co      11.179854839650062     19.432057839698075     10.002073370113637
Co      11.179854839650062     19.432057839698075     12.503110055170453
Co       9.119903226433376     17.935415387062900     10.002073370113637
Co       9.119903226433376     17.935415387062900     12.503110055170453
Co       7.059951613216688     16.438772934427728     10.002073370113637
Co       7.059951613216688     16.438772934427728     12.503110055170453
Co       7.846783114285286     14.017154577058012     10.002073370113637
Co       7.846783114285286     14.017154577058012     12.503110055170453
Co       8.633614615353881     11.595536219688297     10.002073370113637
Co       8.633614615353881     11.595536219688297     12.503110055170453
Co       9.420446116422481      9.173917862318582     10.002073370113637
Co       9.420446116422481      9.173917862318582     12.503110055170453
Co      10.207277617491076      6.752299504948866     10.002073370113637
Co      10.207277617491076      6.752299504948866     12.503110055170453
Co      12.753517841787259      6.752299504948866     10.002073370113637
Co      12.753517841787259      6.752299504948866     12.503110055170453
Co      15.299758066083438      6.752299504948864     10.002073370113637
Co      15.299758066083438      6.752299504948864     12.503110055170453
Co      17.845998290379619      6.752299504948863     10.002073370113637
Co      17.845998290379619      6.752299504948863     12.503110055170453
Co      20.392238514675796      6.752299504948863     10.002073370113637
Co      20.392238514675796      6.752299504948863     12.503110055170453
Co      21.179070015744397      9.173917862318579     10.002073370113637
Co      21.179070015744397      9.173917862318579     12.503110055170453
Co      21.965901516812991     11.595536219688295     10.002073370113637
Co      21.965901516812991     11.595536219688295     12.503110055170453
Co      22.752733017881596     14.017154577058010     10.002073370113637
Co      22.752733017881596     14.017154577058010     12.503110055170453
Co      25.599516132166880     17.108091786848576     11.252591712642046
Co      23.539564518950193     18.604734239483751     11.252591712642046
Co      21.479612905733504     20.101376692118922     11.252591712642046
Co      19.419661292516814     21.598019144754097     11.252591712642046
Co      17.359709679300124     23.094661597389273     11.252591712642046
Co      15.299758066083438     24.591304050024444     11.252591712642046
Co      13.239806452866754     23.094661597389273     11.252591712642046
Co      11.179854839650062     21.598019144754101     11.252591712642046
Co       9.119903226433376     20.101376692118922     11.252591712642046
Co       7.059951613216688     18.604734239483754     11.252591712642046
Co       5.000000000000000     17.108091786848579     11.252591712642046
Co       5.786831501068598     14.686473429478863     11.252591712642046
Co       6.573663002137196     12.264855072109146     11.252591712642046
Co       7.360494503205793      9.843236714739431     11.252591712642046
Co       8.147326004274390      7.421618357369717     11.252591712642046
Co       8.934157505342986      5.000000000000002     11.252591712642046
Co      11.480397729639165      5.000000000000002     11.252591712642046
Co      14.026637953935348      4.999999999999999     11.252591712642046
Co      16.572878178231527      4.999999999999999     11.252591712642046
Co      19.119118402527707      4.999999999999999     11.252591712642046
Co      21.665358626823888      4.999999999999999     11.252591712642046
Co      22.452190127892486      7.421618357369714     11.252591712642046
Co      23.239021628961087      9.843236714739430     11.252591712642046
Co      24.025853130029681     12.264855072109144     11.252591712642046
Co      24.812684631098278     14.686473429478859     11.252591712642046
